* NGSPICE file created from decred_controller.ext - technology: sky130A

* Black-box entry subcircuit for sky130_fd_sc_hd__a41o_4 abstract view
.subckt sky130_fd_sc_hd__a41o_4 A1 A2 A3 A4 B1 VGND VNB VPB VPWR X
.ends

* Black-box entry subcircuit for sky130_fd_sc_hd__fill_1 abstract view
.subckt sky130_fd_sc_hd__fill_1 VGND VNB VPB VPWR
.ends

* Black-box entry subcircuit for sky130_fd_sc_hd__and2_4 abstract view
.subckt sky130_fd_sc_hd__and2_4 A B VGND VNB VPB VPWR X
.ends

* Black-box entry subcircuit for sky130_fd_sc_hd__decap_6 abstract view
.subckt sky130_fd_sc_hd__decap_6 VGND VNB VPB VPWR
.ends

* Black-box entry subcircuit for sky130_fd_sc_hd__decap_8 abstract view
.subckt sky130_fd_sc_hd__decap_8 VGND VNB VPB VPWR
.ends

* Black-box entry subcircuit for sky130_fd_sc_hd__decap_4 abstract view
.subckt sky130_fd_sc_hd__decap_4 VGND VNB VPB VPWR
.ends

* Black-box entry subcircuit for sky130_fd_sc_hd__nand2_4 abstract view
.subckt sky130_fd_sc_hd__nand2_4 A B VGND VNB VPB VPWR Y
.ends

* Black-box entry subcircuit for sky130_fd_sc_hd__dfxtp_4 abstract view
.subckt sky130_fd_sc_hd__dfxtp_4 CLK D VGND VNB VPB VPWR Q
.ends

* Black-box entry subcircuit for sky130_fd_sc_hd__and4_4 abstract view
.subckt sky130_fd_sc_hd__and4_4 A B C D VGND VNB VPB VPWR X
.ends

* Black-box entry subcircuit for sky130_fd_sc_hd__a21oi_4 abstract view
.subckt sky130_fd_sc_hd__a21oi_4 A1 A2 B1 VGND VNB VPB VPWR Y
.ends

* Black-box entry subcircuit for sky130_fd_sc_hd__buf_2 abstract view
.subckt sky130_fd_sc_hd__buf_2 A VGND VNB VPB VPWR X
.ends

* Black-box entry subcircuit for sky130_fd_sc_hd__fill_2 abstract view
.subckt sky130_fd_sc_hd__fill_2 VGND VNB VPB VPWR
.ends

* Black-box entry subcircuit for sky130_fd_sc_hd__nor2_4 abstract view
.subckt sky130_fd_sc_hd__nor2_4 A B VGND VNB VPB VPWR Y
.ends

* Black-box entry subcircuit for sky130_fd_sc_hd__inv_2 abstract view
.subckt sky130_fd_sc_hd__inv_2 A VGND VNB VPB VPWR Y
.ends

* Black-box entry subcircuit for sky130_fd_sc_hd__nand4_4 abstract view
.subckt sky130_fd_sc_hd__nand4_4 A B C D VGND VNB VPB VPWR Y
.ends

* Black-box entry subcircuit for sky130_fd_sc_hd__clkbuf_1 abstract view
.subckt sky130_fd_sc_hd__clkbuf_1 A VGND VNB VPB VPWR X
.ends

* Black-box entry subcircuit for sky130_fd_sc_hd__diode_2 abstract view
.subckt sky130_fd_sc_hd__diode_2 DIODE VGND VNB VPB VPWR
.ends

* Black-box entry subcircuit for sky130_fd_sc_hd__o21ai_4 abstract view
.subckt sky130_fd_sc_hd__o21ai_4 A1 A2 B1 VGND VNB VPB VPWR Y
.ends

* Black-box entry subcircuit for sky130_fd_sc_hd__clkbuf_16 abstract view
.subckt sky130_fd_sc_hd__clkbuf_16 A VGND VNB VPB VPWR X
.ends

* Black-box entry subcircuit for sky130_fd_sc_hd__tapvpwrvgnd_1 abstract view
.subckt sky130_fd_sc_hd__tapvpwrvgnd_1 VGND VPWR
.ends

* Black-box entry subcircuit for sky130_fd_sc_hd__decap_3 abstract view
.subckt sky130_fd_sc_hd__decap_3 VGND VNB VPB VPWR
.ends

* Black-box entry subcircuit for sky130_fd_sc_hd__decap_12 abstract view
.subckt sky130_fd_sc_hd__decap_12 VGND VNB VPB VPWR
.ends

* Black-box entry subcircuit for sky130_fd_sc_hd__o21a_4 abstract view
.subckt sky130_fd_sc_hd__o21a_4 A1 A2 B1 VGND VNB VPB VPWR X
.ends

* Black-box entry subcircuit for sky130_fd_sc_hd__nand3_4 abstract view
.subckt sky130_fd_sc_hd__nand3_4 A B C VGND VNB VPB VPWR Y
.ends

* Black-box entry subcircuit for sky130_fd_sc_hd__a41oi_4 abstract view
.subckt sky130_fd_sc_hd__a41oi_4 A1 A2 A3 A4 B1 VGND VNB VPB VPWR Y
.ends

* Black-box entry subcircuit for sky130_fd_sc_hd__a21o_4 abstract view
.subckt sky130_fd_sc_hd__a21o_4 A1 A2 B1 VGND VNB VPB VPWR X
.ends

* Black-box entry subcircuit for sky130_fd_sc_hd__o41ai_4 abstract view
.subckt sky130_fd_sc_hd__o41ai_4 A1 A2 A3 A4 B1 VGND VNB VPB VPWR Y
.ends

* Black-box entry subcircuit for sky130_fd_sc_hd__nor3_4 abstract view
.subckt sky130_fd_sc_hd__nor3_4 A B C VGND VNB VPB VPWR Y
.ends

* Black-box entry subcircuit for sky130_fd_sc_hd__and3_4 abstract view
.subckt sky130_fd_sc_hd__and3_4 A B C VGND VNB VPB VPWR X
.ends

* Black-box entry subcircuit for sky130_fd_sc_hd__xnor2_4 abstract view
.subckt sky130_fd_sc_hd__xnor2_4 A B VGND VNB VPB VPWR Y
.ends

* Black-box entry subcircuit for sky130_fd_sc_hd__a211o_4 abstract view
.subckt sky130_fd_sc_hd__a211o_4 A1 A2 B1 C1 VGND VNB VPB VPWR X
.ends

* Black-box entry subcircuit for sky130_fd_sc_hd__o32a_4 abstract view
.subckt sky130_fd_sc_hd__o32a_4 A1 A2 A3 B1 B2 VGND VNB VPB VPWR X
.ends

* Black-box entry subcircuit for sky130_fd_sc_hd__o41a_4 abstract view
.subckt sky130_fd_sc_hd__o41a_4 A1 A2 A3 A4 B1 VGND VNB VPB VPWR X
.ends

* Black-box entry subcircuit for sky130_fd_sc_hd__a22oi_4 abstract view
.subckt sky130_fd_sc_hd__a22oi_4 A1 A2 B1 B2 VGND VNB VPB VPWR Y
.ends

* Black-box entry subcircuit for sky130_fd_sc_hd__or2_4 abstract view
.subckt sky130_fd_sc_hd__or2_4 A B VGND VNB VPB VPWR X
.ends

* Black-box entry subcircuit for sky130_fd_sc_hd__a2bb2o_4 abstract view
.subckt sky130_fd_sc_hd__a2bb2o_4 A1_N A2_N B1 B2 VGND VNB VPB VPWR X
.ends

* Black-box entry subcircuit for sky130_fd_sc_hd__a21boi_4 abstract view
.subckt sky130_fd_sc_hd__a21boi_4 A1 A2 B1_N VGND VNB VPB VPWR Y
.ends

* Black-box entry subcircuit for sky130_fd_sc_hd__or3_4 abstract view
.subckt sky130_fd_sc_hd__or3_4 A B C VGND VNB VPB VPWR X
.ends

* Black-box entry subcircuit for sky130_fd_sc_hd__o22a_4 abstract view
.subckt sky130_fd_sc_hd__o22a_4 A1 A2 B1 B2 VGND VNB VPB VPWR X
.ends

* Black-box entry subcircuit for sky130_fd_sc_hd__conb_1 abstract view
.subckt sky130_fd_sc_hd__conb_1 VGND VNB VPB VPWR HI LO
.ends

* Black-box entry subcircuit for sky130_fd_sc_hd__a2111o_4 abstract view
.subckt sky130_fd_sc_hd__a2111o_4 A1 A2 B1 C1 D1 VGND VNB VPB VPWR X
.ends

* Black-box entry subcircuit for sky130_fd_sc_hd__nor4_4 abstract view
.subckt sky130_fd_sc_hd__nor4_4 A B C D VGND VNB VPB VPWR Y
.ends

* Black-box entry subcircuit for sky130_fd_sc_hd__a2bb2oi_4 abstract view
.subckt sky130_fd_sc_hd__a2bb2oi_4 A1_N A2_N B1 B2 VGND VNB VPB VPWR Y
.ends

* Black-box entry subcircuit for sky130_fd_sc_hd__o32ai_4 abstract view
.subckt sky130_fd_sc_hd__o32ai_4 A1 A2 A3 B1 B2 VGND VNB VPB VPWR Y
.ends

* Black-box entry subcircuit for sky130_fd_sc_hd__a2111oi_4 abstract view
.subckt sky130_fd_sc_hd__a2111oi_4 A1 A2 B1 C1 D1 VGND VNB VPB VPWR Y
.ends

* Black-box entry subcircuit for sky130_fd_sc_hd__xor2_4 abstract view
.subckt sky130_fd_sc_hd__xor2_4 A B VGND VNB VPB VPWR X
.ends

* Black-box entry subcircuit for sky130_fd_sc_hd__or4_4 abstract view
.subckt sky130_fd_sc_hd__or4_4 A B C D VGND VNB VPB VPWR X
.ends

.subckt decred_controller CLK_LED DATA_AVAILABLE[0] DATA_AVAILABLE[1] DATA_AVAILABLE[2]
+ DATA_AVAILABLE[3] DATA_AVAILABLE[4] DATA_AVAILABLE[5] DATA_FROM_HASH[0] DATA_FROM_HASH[1]
+ DATA_FROM_HASH[2] DATA_FROM_HASH[3] DATA_FROM_HASH[4] DATA_FROM_HASH[5] DATA_FROM_HASH[6]
+ DATA_FROM_HASH[7] DATA_TO_HASH[0] DATA_TO_HASH[1] DATA_TO_HASH[2] DATA_TO_HASH[3]
+ DATA_TO_HASH[4] DATA_TO_HASH[5] DATA_TO_HASH[6] DATA_TO_HASH[7] EXT_RESET_N_fromHost
+ EXT_RESET_N_toClient HASH_ADDR[0] HASH_ADDR[1] HASH_ADDR[2] HASH_ADDR[3] HASH_ADDR[4]
+ HASH_ADDR[5] HASH_EN HASH_LED ID_fromClient ID_toHost IRQ_OUT_fromClient IRQ_OUT_toHost
+ M1_CLK_IN M1_CLK_SELECT MACRO_RD_SELECT[0] MACRO_RD_SELECT[1] MACRO_RD_SELECT[2]
+ MACRO_RD_SELECT[3] MACRO_RD_SELECT[4] MACRO_RD_SELECT[5] MACRO_WR_SELECT[0] MACRO_WR_SELECT[1]
+ MACRO_WR_SELECT[2] MACRO_WR_SELECT[3] MACRO_WR_SELECT[4] MACRO_WR_SELECT[5] MISO_fromClient
+ MISO_toHost MOSI_fromHost MOSI_toClient PLL_INPUT S1_CLK_IN S1_CLK_SELECT SCLK_fromHost
+ SCLK_toClient SCSN_fromHost SCSN_toClient THREAD_COUNT[0] THREAD_COUNT[1] THREAD_COUNT[2]
+ THREAD_COUNT[3] m1_clk_local one zero vccd1 vssd1 vccd2_uq0 vccd2 vssd2 vdda1_uq0
+ vdda1 vssa1 vdda2_uq0 vdda2 vssa2
X_2037_ _2036_/Y _1980_/A _2027_/B _2026_/A _1990_/A vssd1 vssd1 vccd1 vccd1 _2039_/A
+ sky130_fd_sc_hd__a41o_4
XFILLER_39_266 vssd1 vssd1 vccd1 vccd1 sky130_fd_sc_hd__fill_1
X_2106_ _2099_/X _2106_/B vssd1 vssd1 vccd1 vccd1 _2497_/D sky130_fd_sc_hd__and2_4
XFILLER_22_177 vssd1 vssd1 vccd1 vccd1 sky130_fd_sc_hd__decap_6
XFILLER_7_7 vssd1 vssd1 vccd1 vccd1 sky130_fd_sc_hd__fill_1
XFILLER_26_30 vssd1 vssd1 vccd1 vccd1 sky130_fd_sc_hd__fill_1
XFILLER_5_310 vssd1 vssd1 vccd1 vccd1 sky130_fd_sc_hd__decap_8
XFILLER_47_8 vssd1 vssd1 vccd1 vccd1 sky130_fd_sc_hd__decap_4
XFILLER_5_365 vssd1 vssd1 vccd1 vccd1 sky130_fd_sc_hd__fill_1
X_1270_ _1295_/A _1300_/B vssd1 vssd1 vccd1 vccd1 _1270_/Y sky130_fd_sc_hd__nand2_4
XFILLER_44_280 vssd1 vssd1 vccd1 vccd1 sky130_fd_sc_hd__decap_4
X_1606_ _1603_/X _1605_/Y vssd1 vssd1 vccd1 vccd1 _2660_/D sky130_fd_sc_hd__nand2_4
X_2655_ _2655_/CLK _1691_/Y vssd1 vssd1 vccd1 vccd1 _1675_/A sky130_fd_sc_hd__dfxtp_4
X_2586_ _2695_/CLK _1895_/X vssd1 vssd1 vccd1 vccd1 HASH_ADDR[1] sky130_fd_sc_hd__dfxtp_4
XFILLER_59_306 vssd1 vssd1 vccd1 vccd1 sky130_fd_sc_hd__decap_6
X_1399_ _1382_/A _1255_/B _1381_/X _1382_/C vssd1 vssd1 vccd1 vccd1 _1407_/B sky130_fd_sc_hd__and4_4
X_1537_ _1521_/X _1533_/X _1536_/X vssd1 vssd1 vccd1 vccd1 _1537_/Y sky130_fd_sc_hd__a21oi_4
X_1468_ _1468_/A vssd1 vssd1 vccd1 vccd1 _1694_/A sky130_fd_sc_hd__buf_2
XFILLER_50_261 vssd1 vssd1 vccd1 vccd1 sky130_fd_sc_hd__decap_4
XFILLER_10_158 vssd1 vssd1 vccd1 vccd1 sky130_fd_sc_hd__decap_4
XFILLER_12_87 vssd1 vssd1 vccd1 vccd1 sky130_fd_sc_hd__fill_2
XFILLER_18_269 vssd1 vssd1 vccd1 vccd1 sky130_fd_sc_hd__decap_6
X_2440_ _2495_/CLK _2440_/D vssd1 vssd1 vccd1 vccd1 _1751_/A sky130_fd_sc_hd__dfxtp_4
X_1322_ _1321_/Y _1313_/A vssd1 vssd1 vccd1 vccd1 _1327_/A sky130_fd_sc_hd__nor2_4
XFILLER_56_309 vssd1 vssd1 vccd1 vccd1 sky130_fd_sc_hd__fill_1
X_2371_ _2371_/A vssd1 vssd1 vccd1 vccd1 _2371_/Y sky130_fd_sc_hd__inv_2
X_1253_ _1414_/A _2671_/Q _1413_/A _1414_/C vssd1 vssd1 vccd1 vccd1 _1254_/D sky130_fd_sc_hd__nand4_4
Xclkbuf_1_0_0_m1_clk_local clkbuf_0_m1_clk_local/X vssd1 vssd1 vccd1 vccd1 clkbuf_1_0_0_m1_clk_local/X
+ sky130_fd_sc_hd__clkbuf_1
XFILLER_5_184 vssd1 vssd1 vccd1 vccd1 sky130_fd_sc_hd__decap_4
X_2707_ _2707_/CLK _1214_/Y vssd1 vssd1 vccd1 vccd1 _1203_/A sky130_fd_sc_hd__dfxtp_4
X_2569_ _2561_/CLK _2569_/D vssd1 vssd1 vccd1 vccd1 _2569_/Q sky130_fd_sc_hd__dfxtp_4
X_2638_ _2511_/CLK _2638_/D vssd1 vssd1 vccd1 vccd1 _1522_/A sky130_fd_sc_hd__dfxtp_4
XFILLER_59_147 vssd1 vssd1 vccd1 vccd1 sky130_fd_sc_hd__decap_4
XINSDIODE2_4 _1976_/X vssd1 vssd1 vccd1 vccd1 sky130_fd_sc_hd__diode_2
XFILLER_48_50 vssd1 vssd1 vccd1 vccd1 sky130_fd_sc_hd__decap_4
XFILLER_2_198 vssd1 vssd1 vccd1 vccd1 sky130_fd_sc_hd__decap_4
XFILLER_46_364 vssd1 vssd1 vccd1 vccd1 sky130_fd_sc_hd__decap_4
XFILLER_46_320 vssd1 vssd1 vccd1 vccd1 sky130_fd_sc_hd__fill_1
X_1871_ _1871_/A _1871_/B vssd1 vssd1 vccd1 vccd1 _1871_/X sky130_fd_sc_hd__and2_4
X_1940_ _1941_/A _1940_/B vssd1 vssd1 vccd1 vccd1 _2560_/D sky130_fd_sc_hd__and2_4
X_2423_ _2517_/CLK _2422_/Q vssd1 vssd1 vccd1 vccd1 _2423_/Q sky130_fd_sc_hd__dfxtp_4
X_1305_ _1305_/A vssd1 vssd1 vccd1 vccd1 _1305_/Y sky130_fd_sc_hd__inv_2
XFILLER_56_128 vssd1 vssd1 vccd1 vccd1 sky130_fd_sc_hd__decap_4
X_1236_ _2263_/B _1208_/A _1222_/X vssd1 vssd1 vccd1 vccd1 _1236_/Y sky130_fd_sc_hd__o21ai_4
X_2285_ _2190_/A _2479_/Q vssd1 vssd1 vccd1 vccd1 _2285_/Y sky130_fd_sc_hd__nor2_4
Xclkbuf_0_m1_clk_local m1_clk_local vssd1 vssd1 vccd1 vccd1 clkbuf_0_m1_clk_local/X
+ sky130_fd_sc_hd__clkbuf_16
X_2354_ _2353_/X vssd1 vssd1 vccd1 vccd1 _2354_/X sky130_fd_sc_hd__buf_2
XFILLER_64_183 vssd1 vssd1 vccd1 vccd1 sky130_fd_sc_hd__decap_6
XFILLER_20_264 vssd1 vssd1 vccd1 vccd1 sky130_fd_sc_hd__decap_8
XFILLER_43_323 vssd1 vssd1 vccd1 vccd1 sky130_fd_sc_hd__decap_4
XFILLER_18_86 vssd1 vssd1 vccd1 vccd1 sky130_fd_sc_hd__decap_6
XPHY_576 vssd1 vccd1 sky130_fd_sc_hd__tapvpwrvgnd_1
XPHY_565 vssd1 vccd1 sky130_fd_sc_hd__tapvpwrvgnd_1
XPHY_554 vssd1 vccd1 sky130_fd_sc_hd__tapvpwrvgnd_1
XPHY_543 vssd1 vccd1 sky130_fd_sc_hd__tapvpwrvgnd_1
XPHY_532 vssd1 vccd1 sky130_fd_sc_hd__tapvpwrvgnd_1
XPHY_521 vssd1 vccd1 sky130_fd_sc_hd__tapvpwrvgnd_1
XPHY_510 vssd1 vccd1 sky130_fd_sc_hd__tapvpwrvgnd_1
XFILLER_43_389 vssd1 vssd1 vccd1 vccd1 sky130_fd_sc_hd__decap_4
XFILLER_43_367 vssd1 vssd1 vccd1 vccd1 sky130_fd_sc_hd__decap_3
XFILLER_34_74 vssd1 vssd1 vccd1 vccd1 sky130_fd_sc_hd__fill_1
XFILLER_11_275 vssd1 vssd1 vccd1 vccd1 sky130_fd_sc_hd__decap_6
XFILLER_66_404 vssd1 vssd1 vccd1 vccd1 sky130_fd_sc_hd__decap_12
X_2070_ _2069_/X vssd1 vssd1 vccd1 vccd1 _2520_/D sky130_fd_sc_hd__inv_2
XFILLER_38_106 vssd1 vssd1 vccd1 vccd1 sky130_fd_sc_hd__decap_6
Xclkbuf_3_3_0_m1_clk_local clkbuf_3_3_0_m1_clk_local/A vssd1 vssd1 vccd1 vccd1 clkbuf_4_7_0_m1_clk_local/A
+ sky130_fd_sc_hd__clkbuf_1
XFILLER_61_164 vssd1 vssd1 vccd1 vccd1 sky130_fd_sc_hd__decap_4
XFILLER_34_367 vssd1 vssd1 vccd1 vccd1 sky130_fd_sc_hd__decap_6
X_1854_ _1842_/A vssd1 vssd1 vccd1 vccd1 _1858_/A sky130_fd_sc_hd__buf_2
XFILLER_61_197 vssd1 vssd1 vccd1 vccd1 sky130_fd_sc_hd__decap_4
X_1923_ _1921_/A _1923_/B vssd1 vssd1 vccd1 vccd1 _2570_/D sky130_fd_sc_hd__nor2_4
X_1785_ _1775_/X _1784_/X _1777_/X vssd1 vssd1 vccd1 vccd1 _1785_/X sky130_fd_sc_hd__o21a_4
X_2406_ SCSN_fromHost vssd1 vssd1 vccd1 vccd1 SCSN_toClient sky130_fd_sc_hd__buf_2
XFILLER_55_29 vssd1 vssd1 vccd1 vccd1 sky130_fd_sc_hd__decap_4
X_1219_ _1219_/A vssd1 vssd1 vccd1 vccd1 _1225_/B sky130_fd_sc_hd__buf_2
XFILLER_37_161 vssd1 vssd1 vccd1 vccd1 sky130_fd_sc_hd__fill_1
X_2337_ _2334_/X _2117_/X _2453_/Q vssd1 vssd1 vccd1 vccd1 _2337_/Y sky130_fd_sc_hd__nand3_4
X_2199_ _2199_/A _2220_/B vssd1 vssd1 vccd1 vccd1 _2199_/Y sky130_fd_sc_hd__nand2_4
X_2268_ _2222_/A _1887_/A _2494_/Q vssd1 vssd1 vccd1 vccd1 _2268_/Y sky130_fd_sc_hd__a21oi_4
XFILLER_40_337 vssd1 vssd1 vccd1 vccd1 sky130_fd_sc_hd__fill_2
XFILLER_25_389 vssd1 vssd1 vccd1 vccd1 sky130_fd_sc_hd__decap_4
XFILLER_4_238 vssd1 vssd1 vccd1 vccd1 sky130_fd_sc_hd__decap_8
XFILLER_20_76 vssd1 vssd1 vccd1 vccd1 sky130_fd_sc_hd__decap_8
XFILLER_0_400 vssd1 vssd1 vccd1 vccd1 sky130_fd_sc_hd__decap_3
XFILLER_43_153 vssd1 vssd1 vccd1 vccd1 sky130_fd_sc_hd__fill_1
XFILLER_16_367 vssd1 vssd1 vccd1 vccd1 sky130_fd_sc_hd__decap_6
XFILLER_61_72 vssd1 vssd1 vccd1 vccd1 sky130_fd_sc_hd__fill_1
XPHY_395 vssd1 vccd1 sky130_fd_sc_hd__tapvpwrvgnd_1
XPHY_384 vssd1 vccd1 sky130_fd_sc_hd__tapvpwrvgnd_1
XPHY_373 vssd1 vccd1 sky130_fd_sc_hd__tapvpwrvgnd_1
XPHY_362 vssd1 vccd1 sky130_fd_sc_hd__tapvpwrvgnd_1
XPHY_351 vssd1 vccd1 sky130_fd_sc_hd__tapvpwrvgnd_1
XPHY_340 vssd1 vccd1 sky130_fd_sc_hd__tapvpwrvgnd_1
X_1570_ _1635_/A _1635_/B _1637_/C vssd1 vssd1 vccd1 vccd1 _1573_/A sky130_fd_sc_hd__nand3_4
XFILLER_6_45 vssd1 vssd1 vccd1 vccd1 sky130_fd_sc_hd__fill_1
XFILLER_66_245 vssd1 vssd1 vccd1 vccd1 sky130_fd_sc_hd__decap_3
X_2053_ _1983_/A vssd1 vssd1 vccd1 vccd1 _2053_/X sky130_fd_sc_hd__buf_2
X_2122_ _2114_/Y _2120_/Y _2121_/Y vssd1 vssd1 vccd1 vccd1 _2491_/D sky130_fd_sc_hd__o21ai_4
XFILLER_13_3 vssd1 vssd1 vccd1 vccd1 sky130_fd_sc_hd__decap_8
X_1906_ _1875_/A vssd1 vssd1 vccd1 vccd1 _1921_/A sky130_fd_sc_hd__buf_2
X_1837_ _1833_/Y _1836_/Y vssd1 vssd1 vccd1 vccd1 _2625_/D sky130_fd_sc_hd__nor2_4
X_1768_ _1768_/A _1768_/B vssd1 vssd1 vccd1 vccd1 _1768_/Y sky130_fd_sc_hd__nand2_4
X_1699_ _1521_/X _1693_/Y _1618_/Y _1694_/Y _1698_/Y vssd1 vssd1 vccd1 vccd1 _2654_/D
+ sky130_fd_sc_hd__a41oi_4
XFILLER_1_208 vssd1 vssd1 vccd1 vccd1 sky130_fd_sc_hd__fill_1
XFILLER_17_109 vssd1 vssd1 vccd1 vccd1 sky130_fd_sc_hd__decap_4
XFILLER_40_123 vssd1 vssd1 vccd1 vccd1 sky130_fd_sc_hd__decap_8
XFILLER_15_98 vssd1 vssd1 vccd1 vccd1 sky130_fd_sc_hd__decap_8
XFILLER_31_97 vssd1 vssd1 vccd1 vccd1 sky130_fd_sc_hd__decap_4
XFILLER_48_289 vssd1 vssd1 vccd1 vccd1 sky130_fd_sc_hd__decap_6
XFILLER_48_245 vssd1 vssd1 vccd1 vccd1 sky130_fd_sc_hd__decap_4
XFILLER_48_201 vssd1 vssd1 vccd1 vccd1 sky130_fd_sc_hd__decap_4
XFILLER_63_259 vssd1 vssd1 vccd1 vccd1 sky130_fd_sc_hd__decap_8
XFILLER_31_101 vssd1 vssd1 vccd1 vccd1 sky130_fd_sc_hd__fill_1
XPHY_170 vssd1 vccd1 sky130_fd_sc_hd__tapvpwrvgnd_1
X_1622_ _1664_/C vssd1 vssd1 vccd1 vccd1 _1633_/D sky130_fd_sc_hd__inv_2
X_2671_ _2679_/CLK _2671_/D vssd1 vssd1 vccd1 vccd1 _2671_/Q sky130_fd_sc_hd__dfxtp_4
XPHY_181 vssd1 vccd1 sky130_fd_sc_hd__tapvpwrvgnd_1
XPHY_192 vssd1 vccd1 sky130_fd_sc_hd__tapvpwrvgnd_1
XFILLER_8_374 vssd1 vssd1 vccd1 vccd1 sky130_fd_sc_hd__decap_4
XFILLER_8_396 vssd1 vssd1 vccd1 vccd1 sky130_fd_sc_hd__fill_1
X_1484_ _1480_/Y _1482_/Y _1483_/X vssd1 vssd1 vccd1 vccd1 _2666_/D sky130_fd_sc_hd__a21oi_4
X_1553_ _2494_/Q vssd1 vssd1 vccd1 vccd1 _2221_/B sky130_fd_sc_hd__buf_2
X_2036_ _2035_/X vssd1 vssd1 vccd1 vccd1 _2036_/Y sky130_fd_sc_hd__inv_2
X_2105_ _1840_/A _2105_/B vssd1 vssd1 vccd1 vccd1 _2498_/D sky130_fd_sc_hd__nand2_4
XFILLER_10_307 vssd1 vssd1 vccd1 vccd1 sky130_fd_sc_hd__fill_1
XFILLER_45_215 vssd1 vssd1 vccd1 vccd1 sky130_fd_sc_hd__decap_8
XFILLER_53_292 vssd1 vssd1 vccd1 vccd1 sky130_fd_sc_hd__decap_4
XFILLER_26_53 vssd1 vssd1 vccd1 vccd1 sky130_fd_sc_hd__decap_4
XFILLER_42_52 vssd1 vssd1 vccd1 vccd1 sky130_fd_sc_hd__decap_6
XFILLER_42_30 vssd1 vssd1 vccd1 vccd1 sky130_fd_sc_hd__fill_1
XFILLER_5_399 vssd1 vssd1 vccd1 vccd1 sky130_fd_sc_hd__decap_4
XFILLER_3_68 vssd1 vssd1 vccd1 vccd1 sky130_fd_sc_hd__fill_1
XFILLER_3_57 vssd1 vssd1 vccd1 vccd1 sky130_fd_sc_hd__decap_4
X_1605_ _2239_/A _2660_/Q vssd1 vssd1 vccd1 vccd1 _1605_/Y sky130_fd_sc_hd__nand2_4
X_1536_ _1457_/X _1535_/X _1474_/X vssd1 vssd1 vccd1 vccd1 _1536_/X sky130_fd_sc_hd__a21o_4
X_2654_ _2514_/CLK _2654_/D vssd1 vssd1 vccd1 vccd1 _2654_/Q sky130_fd_sc_hd__dfxtp_4
X_2585_ _2582_/CLK _2585_/D vssd1 vssd1 vccd1 vccd1 HASH_ADDR[0] sky130_fd_sc_hd__dfxtp_4
X_1398_ _1394_/Y _1395_/Y _1397_/X vssd1 vssd1 vccd1 vccd1 _2679_/D sky130_fd_sc_hd__a21oi_4
X_1467_ _1460_/A _1450_/B _1462_/X vssd1 vssd1 vccd1 vccd1 _1467_/Y sky130_fd_sc_hd__o21ai_4
X_2019_ _2008_/A _2007_/X _1363_/C vssd1 vssd1 vccd1 vccd1 _2019_/Y sky130_fd_sc_hd__o21ai_4
XFILLER_42_229 vssd1 vssd1 vccd1 vccd1 sky130_fd_sc_hd__decap_8
XFILLER_50_284 vssd1 vssd1 vccd1 vccd1 sky130_fd_sc_hd__fill_1
XFILLER_41_273 vssd1 vssd1 vccd1 vccd1 sky130_fd_sc_hd__decap_4
X_1321_ _1247_/B vssd1 vssd1 vccd1 vccd1 _1321_/Y sky130_fd_sc_hd__inv_2
XFILLER_49_340 vssd1 vssd1 vccd1 vccd1 sky130_fd_sc_hd__decap_4
X_1252_ _2674_/Q _1252_/B vssd1 vssd1 vccd1 vccd1 _1254_/C sky130_fd_sc_hd__nand2_4
X_2370_ _1243_/X _1675_/A _1235_/X _1608_/B _2369_/Y vssd1 vssd1 vccd1 vccd1 _2370_/Y
+ sky130_fd_sc_hd__o41ai_4
XFILLER_64_398 vssd1 vssd1 vccd1 vccd1 sky130_fd_sc_hd__decap_12
XFILLER_32_240 vssd1 vssd1 vccd1 vccd1 sky130_fd_sc_hd__decap_6
Xclkbuf_3_4_0_addressalyzerBlock.SPI_CLK clkbuf_3_5_0_addressalyzerBlock.SPI_CLK/A
+ vssd1 vssd1 vccd1 vccd1 clkbuf_4_9_0_addressalyzerBlock.SPI_CLK/A sky130_fd_sc_hd__clkbuf_1
X_2706_ _2707_/CLK _2706_/D vssd1 vssd1 vccd1 vccd1 _2706_/Q sky130_fd_sc_hd__dfxtp_4
XFILLER_32_295 vssd1 vssd1 vccd1 vccd1 sky130_fd_sc_hd__decap_8
XFILLER_59_126 vssd1 vssd1 vccd1 vccd1 sky130_fd_sc_hd__decap_4
XFILLER_59_115 vssd1 vssd1 vccd1 vccd1 sky130_fd_sc_hd__decap_6
X_2499_ _2707_/CLK _2499_/D vssd1 vssd1 vccd1 vccd1 _2499_/Q sky130_fd_sc_hd__dfxtp_4
X_1519_ _1471_/X _1472_/X _1518_/X vssd1 vssd1 vccd1 vccd1 _1519_/X sky130_fd_sc_hd__a21o_4
X_2568_ _2561_/CLK _1928_/Y vssd1 vssd1 vccd1 vccd1 _1940_/B sky130_fd_sc_hd__dfxtp_4
XINSDIODE2_5 _1937_/X vssd1 vssd1 vccd1 vccd1 sky130_fd_sc_hd__diode_2
X_2637_ _2443_/CLK _2637_/D vssd1 vssd1 vccd1 vccd1 _1794_/A sky130_fd_sc_hd__dfxtp_4
XFILLER_23_240 vssd1 vssd1 vccd1 vccd1 sky130_fd_sc_hd__decap_4
XFILLER_15_229 vssd1 vssd1 vccd1 vccd1 sky130_fd_sc_hd__decap_4
XFILLER_2_122 vssd1 vssd1 vccd1 vccd1 sky130_fd_sc_hd__fill_1
XFILLER_2_100 vssd1 vssd1 vccd1 vccd1 sky130_fd_sc_hd__decap_4
XFILLER_23_98 vssd1 vssd1 vccd1 vccd1 sky130_fd_sc_hd__decap_6
XFILLER_48_84 vssd1 vssd1 vccd1 vccd1 sky130_fd_sc_hd__fill_1
XFILLER_48_73 vssd1 vssd1 vccd1 vccd1 sky130_fd_sc_hd__decap_4
XFILLER_46_398 vssd1 vssd1 vccd1 vccd1 sky130_fd_sc_hd__fill_1
XFILLER_46_343 vssd1 vssd1 vccd1 vccd1 sky130_fd_sc_hd__decap_4
X_1870_ _1871_/A _2605_/Q vssd1 vssd1 vccd1 vccd1 _2599_/D sky130_fd_sc_hd__and2_4
XFILLER_43_3 vssd1 vssd1 vccd1 vccd1 sky130_fd_sc_hd__fill_1
X_2353_ _1590_/A _2353_/B _2111_/X _2353_/D vssd1 vssd1 vccd1 vccd1 _2353_/X sky130_fd_sc_hd__and4_4
X_2422_ _2517_/CLK _2421_/Q vssd1 vssd1 vccd1 vccd1 _2422_/Q sky130_fd_sc_hd__dfxtp_4
X_1304_ _1956_/A _1282_/B _1304_/C vssd1 vssd1 vccd1 vccd1 _1304_/Y sky130_fd_sc_hd__nor3_4
X_1235_ _1207_/A vssd1 vssd1 vccd1 vccd1 _1235_/X sky130_fd_sc_hd__buf_2
X_2284_ _2281_/Y _2282_/Y _2283_/Y vssd1 vssd1 vccd1 vccd1 _2284_/X sky130_fd_sc_hd__a21o_4
XFILLER_37_365 vssd1 vssd1 vccd1 vccd1 sky130_fd_sc_hd__fill_1
XFILLER_37_387 vssd1 vssd1 vccd1 vccd1 sky130_fd_sc_hd__decap_4
XFILLER_20_210 vssd1 vssd1 vccd1 vccd1 sky130_fd_sc_hd__decap_4
X_1999_ _2008_/A _2008_/B _2003_/A vssd1 vssd1 vccd1 vccd1 _2000_/B sky130_fd_sc_hd__nor3_4
XFILLER_20_276 vssd1 vssd1 vccd1 vccd1 sky130_fd_sc_hd__decap_4
XFILLER_20_298 vssd1 vssd1 vccd1 vccd1 sky130_fd_sc_hd__decap_6
XFILLER_47_118 vssd1 vssd1 vccd1 vccd1 sky130_fd_sc_hd__decap_4
XFILLER_47_107 vssd1 vssd1 vccd1 vccd1 sky130_fd_sc_hd__decap_4
XPHY_500 vssd1 vccd1 sky130_fd_sc_hd__tapvpwrvgnd_1
XFILLER_28_332 vssd1 vssd1 vccd1 vccd1 sky130_fd_sc_hd__decap_4
XFILLER_18_32 vssd1 vssd1 vccd1 vccd1 sky130_fd_sc_hd__decap_4
XPHY_577 vssd1 vccd1 sky130_fd_sc_hd__tapvpwrvgnd_1
XPHY_566 vssd1 vccd1 sky130_fd_sc_hd__tapvpwrvgnd_1
XPHY_555 vssd1 vccd1 sky130_fd_sc_hd__tapvpwrvgnd_1
XPHY_544 vssd1 vccd1 sky130_fd_sc_hd__tapvpwrvgnd_1
XPHY_533 vssd1 vccd1 sky130_fd_sc_hd__tapvpwrvgnd_1
XPHY_522 vssd1 vccd1 sky130_fd_sc_hd__tapvpwrvgnd_1
XPHY_511 vssd1 vccd1 sky130_fd_sc_hd__tapvpwrvgnd_1
XFILLER_50_30 vssd1 vssd1 vccd1 vccd1 sky130_fd_sc_hd__fill_1
XFILLER_7_236 vssd1 vssd1 vccd1 vccd1 sky130_fd_sc_hd__fill_1
XFILLER_11_221 vssd1 vssd1 vccd1 vccd1 sky130_fd_sc_hd__decap_4
XFILLER_11_243 vssd1 vssd1 vccd1 vccd1 sky130_fd_sc_hd__fill_1
XFILLER_66_416 vssd1 vssd1 vccd1 vccd1 sky130_fd_sc_hd__fill_2
XFILLER_19_310 vssd1 vssd1 vccd1 vccd1 sky130_fd_sc_hd__decap_4
XFILLER_34_324 vssd1 vssd1 vccd1 vccd1 sky130_fd_sc_hd__decap_4
XFILLER_34_313 vssd1 vssd1 vccd1 vccd1 sky130_fd_sc_hd__decap_6
X_1922_ _1922_/A vssd1 vssd1 vccd1 vccd1 _1923_/B sky130_fd_sc_hd__inv_2
X_1853_ _1853_/A _2621_/Q vssd1 vssd1 vccd1 vccd1 _2613_/D sky130_fd_sc_hd__and2_4
X_1784_ _1489_/A vssd1 vssd1 vccd1 vccd1 _1784_/X sky130_fd_sc_hd__buf_2
XFILLER_57_405 vssd1 vssd1 vccd1 vccd1 sky130_fd_sc_hd__decap_4
X_2405_ SCLK_fromHost vssd1 vssd1 vccd1 vccd1 SCLK_toClient sky130_fd_sc_hd__buf_2
X_2336_ _1672_/Y _2333_/X _2335_/Y vssd1 vssd1 vccd1 vccd1 _2454_/D sky130_fd_sc_hd__o21ai_4
X_1218_ _1216_/Y _1208_/X _1217_/Y vssd1 vssd1 vccd1 vccd1 _2706_/D sky130_fd_sc_hd__a21oi_4
X_2198_ _2222_/A _2198_/B vssd1 vssd1 vccd1 vccd1 _2200_/A sky130_fd_sc_hd__nand2_4
X_2267_ _1978_/B _1647_/X _2266_/Y vssd1 vssd1 vccd1 vccd1 _2267_/Y sky130_fd_sc_hd__o21ai_4
XFILLER_20_22 vssd1 vssd1 vccd1 vccd1 sky130_fd_sc_hd__decap_8
XFILLER_20_55 vssd1 vssd1 vccd1 vccd1 sky130_fd_sc_hd__fill_1
XFILLER_20_88 vssd1 vssd1 vccd1 vccd1 sky130_fd_sc_hd__decap_4
XFILLER_28_140 vssd1 vssd1 vccd1 vccd1 sky130_fd_sc_hd__fill_2
XPHY_352 vssd1 vccd1 sky130_fd_sc_hd__tapvpwrvgnd_1
XPHY_341 vssd1 vccd1 sky130_fd_sc_hd__tapvpwrvgnd_1
XPHY_330 vssd1 vccd1 sky130_fd_sc_hd__tapvpwrvgnd_1
XFILLER_16_335 vssd1 vssd1 vccd1 vccd1 sky130_fd_sc_hd__fill_1
XPHY_396 vssd1 vccd1 sky130_fd_sc_hd__tapvpwrvgnd_1
XPHY_385 vssd1 vccd1 sky130_fd_sc_hd__tapvpwrvgnd_1
XPHY_374 vssd1 vccd1 sky130_fd_sc_hd__tapvpwrvgnd_1
XPHY_363 vssd1 vccd1 sky130_fd_sc_hd__tapvpwrvgnd_1
XFILLER_66_213 vssd1 vssd1 vccd1 vccd1 sky130_fd_sc_hd__decap_4
X_2052_ _2051_/X _2023_/B _2035_/X vssd1 vssd1 vccd1 vccd1 _2525_/D sky130_fd_sc_hd__and3_4
X_2121_ _2114_/Y _2117_/X _1649_/A vssd1 vssd1 vccd1 vccd1 _2121_/Y sky130_fd_sc_hd__nand3_4
X_1905_ _1901_/A _1904_/Y vssd1 vssd1 vccd1 vccd1 _1905_/Y sky130_fd_sc_hd__nor2_4
XFILLER_22_349 vssd1 vssd1 vccd1 vccd1 sky130_fd_sc_hd__decap_4
XFILLER_30_393 vssd1 vssd1 vccd1 vccd1 sky130_fd_sc_hd__decap_4
X_1698_ _2654_/Q _1695_/X _1697_/X vssd1 vssd1 vccd1 vccd1 _1698_/Y sky130_fd_sc_hd__o21ai_4
X_1836_ _1836_/A _1974_/C vssd1 vssd1 vccd1 vccd1 _1836_/Y sky130_fd_sc_hd__xnor2_4
X_1767_ _1766_/X _2659_/Q _1770_/C vssd1 vssd1 vccd1 vccd1 _1767_/Y sky130_fd_sc_hd__nand3_4
XFILLER_45_408 vssd1 vssd1 vccd1 vccd1 sky130_fd_sc_hd__decap_8
X_2319_ _2318_/Y vssd1 vssd1 vccd1 vccd1 _2319_/Y sky130_fd_sc_hd__inv_2
XFILLER_40_102 vssd1 vssd1 vccd1 vccd1 sky130_fd_sc_hd__decap_4
XFILLER_25_198 vssd1 vssd1 vccd1 vccd1 sky130_fd_sc_hd__fill_1
XFILLER_25_187 vssd1 vssd1 vccd1 vccd1 sky130_fd_sc_hd__decap_4
XFILLER_25_121 vssd1 vssd1 vccd1 vccd1 sky130_fd_sc_hd__fill_1
XFILLER_15_22 vssd1 vssd1 vccd1 vccd1 sky130_fd_sc_hd__decap_4
XFILLER_15_55 vssd1 vssd1 vccd1 vccd1 sky130_fd_sc_hd__decap_6
XFILLER_40_157 vssd1 vssd1 vccd1 vccd1 sky130_fd_sc_hd__decap_4
XFILLER_9_309 vssd1 vssd1 vccd1 vccd1 sky130_fd_sc_hd__decap_4
XFILLER_21_393 vssd1 vssd1 vccd1 vccd1 sky130_fd_sc_hd__decap_6
XFILLER_0_231 vssd1 vssd1 vccd1 vccd1 sky130_fd_sc_hd__fill_1
XFILLER_63_238 vssd1 vssd1 vccd1 vccd1 sky130_fd_sc_hd__decap_6
XFILLER_48_213 vssd1 vssd1 vccd1 vccd1 sky130_fd_sc_hd__fill_1
XFILLER_31_179 vssd1 vssd1 vccd1 vccd1 sky130_fd_sc_hd__decap_4
XPHY_171 vssd1 vccd1 sky130_fd_sc_hd__tapvpwrvgnd_1
XPHY_160 vssd1 vccd1 sky130_fd_sc_hd__tapvpwrvgnd_1
XPHY_182 vssd1 vccd1 sky130_fd_sc_hd__tapvpwrvgnd_1
XPHY_193 vssd1 vccd1 sky130_fd_sc_hd__tapvpwrvgnd_1
X_2670_ _2670_/CLK _2670_/D vssd1 vssd1 vccd1 vccd1 _1413_/A sky130_fd_sc_hd__dfxtp_4
XFILLER_8_331 vssd1 vssd1 vccd1 vccd1 sky130_fd_sc_hd__decap_4
XFILLER_8_342 vssd1 vssd1 vccd1 vccd1 sky130_fd_sc_hd__decap_4
X_1552_ _2335_/C _1546_/X _1548_/X _1551_/Y vssd1 vssd1 vccd1 vccd1 _1552_/X sky130_fd_sc_hd__a211o_4
X_1621_ _1617_/X _1620_/Y _1492_/X vssd1 vssd1 vccd1 vccd1 _2659_/D sky130_fd_sc_hd__a21oi_4
X_2104_ _1840_/A _2104_/B vssd1 vssd1 vccd1 vccd1 _2499_/D sky130_fd_sc_hd__nand2_4
X_1483_ _1458_/X _1444_/A _1474_/X vssd1 vssd1 vccd1 vccd1 _1483_/X sky130_fd_sc_hd__a21o_4
XFILLER_50_411 vssd1 vssd1 vccd1 vccd1 sky130_fd_sc_hd__decap_6
X_2035_ _1989_/D vssd1 vssd1 vccd1 vccd1 _2035_/X sky130_fd_sc_hd__buf_2
X_1819_ _1203_/B _1819_/B _1822_/B vssd1 vssd1 vccd1 vccd1 _1819_/Y sky130_fd_sc_hd__nand3_4
XFILLER_53_271 vssd1 vssd1 vccd1 vccd1 sky130_fd_sc_hd__decap_4
XFILLER_41_411 vssd1 vssd1 vccd1 vccd1 sky130_fd_sc_hd__decap_6
XFILLER_26_43 vssd1 vssd1 vccd1 vccd1 sky130_fd_sc_hd__fill_1
XFILLER_9_117 vssd1 vssd1 vccd1 vccd1 sky130_fd_sc_hd__decap_4
XFILLER_13_102 vssd1 vssd1 vccd1 vccd1 sky130_fd_sc_hd__decap_4
XFILLER_13_135 vssd1 vssd1 vccd1 vccd1 sky130_fd_sc_hd__decap_6
XFILLER_13_179 vssd1 vssd1 vccd1 vccd1 sky130_fd_sc_hd__decap_4
XFILLER_5_301 vssd1 vssd1 vccd1 vccd1 sky130_fd_sc_hd__decap_4
XFILLER_44_271 vssd1 vssd1 vccd1 vccd1 sky130_fd_sc_hd__decap_4
XFILLER_59_319 vssd1 vssd1 vccd1 vccd1 sky130_fd_sc_hd__decap_4
X_1604_ _2165_/A vssd1 vssd1 vccd1 vccd1 _2239_/A sky130_fd_sc_hd__buf_2
X_1535_ _1595_/A vssd1 vssd1 vccd1 vccd1 _1535_/X sky130_fd_sc_hd__buf_2
X_2584_ _2581_/CLK _1899_/Y vssd1 vssd1 vccd1 vccd1 _1911_/B sky130_fd_sc_hd__dfxtp_4
XFILLER_8_194 vssd1 vssd1 vccd1 vccd1 sky130_fd_sc_hd__fill_2
X_2653_ _2495_/CLK _1711_/X vssd1 vssd1 vccd1 vccd1 _2653_/Q sky130_fd_sc_hd__dfxtp_4
X_1397_ _1259_/B _2679_/Q _1396_/X _1256_/Y _1298_/X vssd1 vssd1 vccd1 vccd1 _1397_/X
+ sky130_fd_sc_hd__a41o_4
X_1466_ _1459_/X _1465_/Y _2375_/A vssd1 vssd1 vccd1 vccd1 _1466_/Y sky130_fd_sc_hd__a21oi_4
X_2018_ _2017_/Y vssd1 vssd1 vccd1 vccd1 _2534_/D sky130_fd_sc_hd__inv_2
XFILLER_6_109 vssd1 vssd1 vccd1 vccd1 sky130_fd_sc_hd__decap_6
XFILLER_12_45 vssd1 vssd1 vccd1 vccd1 sky130_fd_sc_hd__fill_1
XFILLER_2_337 vssd1 vssd1 vccd1 vccd1 sky130_fd_sc_hd__fill_1
XFILLER_58_396 vssd1 vssd1 vccd1 vccd1 sky130_fd_sc_hd__fill_1
XFILLER_33_219 vssd1 vssd1 vccd1 vccd1 sky130_fd_sc_hd__decap_4
XFILLER_53_52 vssd1 vssd1 vccd1 vccd1 sky130_fd_sc_hd__fill_1
X_1320_ _1320_/A vssd1 vssd1 vccd1 vccd1 _1320_/Y sky130_fd_sc_hd__inv_2
X_1251_ _2672_/Q vssd1 vssd1 vccd1 vccd1 _1254_/B sky130_fd_sc_hd__inv_2
X_2705_ _2705_/CLK _2705_/D vssd1 vssd1 vccd1 vccd1 _1220_/A sky130_fd_sc_hd__dfxtp_4
X_2636_ _2443_/CLK _2636_/D vssd1 vssd1 vccd1 vccd1 _2636_/Q sky130_fd_sc_hd__dfxtp_4
XINSDIODE2_6 _1936_/X vssd1 vssd1 vccd1 vccd1 sky130_fd_sc_hd__diode_2
X_2498_ _2707_/CLK _2498_/D vssd1 vssd1 vccd1 vccd1 _2089_/A sky130_fd_sc_hd__dfxtp_4
X_1518_ _1516_/X _1508_/Y _1488_/X _1517_/Y _1469_/X vssd1 vssd1 vccd1 vccd1 _1518_/X
+ sky130_fd_sc_hd__o32a_4
X_2567_ _2581_/CLK _1930_/Y vssd1 vssd1 vccd1 vccd1 _2567_/Q sky130_fd_sc_hd__dfxtp_4
X_1449_ _1448_/Y vssd1 vssd1 vccd1 vccd1 _1450_/D sky130_fd_sc_hd__buf_2
XFILLER_55_300 vssd1 vssd1 vccd1 vccd1 sky130_fd_sc_hd__decap_4
XFILLER_15_208 vssd1 vssd1 vccd1 vccd1 sky130_fd_sc_hd__decap_4
XFILLER_3_3 vssd1 vssd1 vccd1 vccd1 sky130_fd_sc_hd__decap_12
XFILLER_58_182 vssd1 vssd1 vccd1 vccd1 sky130_fd_sc_hd__decap_6
XFILLER_0_15 vssd1 vssd1 vccd1 vccd1 sky130_fd_sc_hd__decap_12
XFILLER_9_24 vssd1 vssd1 vccd1 vccd1 sky130_fd_sc_hd__decap_4
X_1303_ _1246_/Y _1247_/Y _1281_/C _1313_/A _1276_/Y vssd1 vssd1 vccd1 vccd1 _1304_/C
+ sky130_fd_sc_hd__o41a_4
X_2283_ _2395_/A _2187_/B _2187_/C vssd1 vssd1 vccd1 vccd1 _2283_/Y sky130_fd_sc_hd__nor3_4
X_2352_ _2351_/X vssd1 vssd1 vccd1 vccd1 _2352_/X sky130_fd_sc_hd__buf_2
X_2421_ _2420_/CLK _2421_/D vssd1 vssd1 vccd1 vccd1 _2421_/Q sky130_fd_sc_hd__dfxtp_4
XFILLER_64_163 vssd1 vssd1 vccd1 vccd1 sky130_fd_sc_hd__fill_1
X_1234_ _1238_/C _1201_/A _1233_/X vssd1 vssd1 vccd1 vccd1 _1234_/Y sky130_fd_sc_hd__o21ai_4
XFILLER_49_171 vssd1 vssd1 vccd1 vccd1 sky130_fd_sc_hd__decap_4
XFILLER_37_399 vssd1 vssd1 vccd1 vccd1 sky130_fd_sc_hd__fill_1
XFILLER_37_377 vssd1 vssd1 vccd1 vccd1 sky130_fd_sc_hd__fill_1
XFILLER_60_391 vssd1 vssd1 vccd1 vccd1 sky130_fd_sc_hd__decap_6
X_2619_ _2621_/CLK _1846_/X vssd1 vssd1 vccd1 vccd1 _1856_/B sky130_fd_sc_hd__dfxtp_4
X_1998_ _2534_/Q vssd1 vssd1 vccd1 vccd1 _2008_/B sky130_fd_sc_hd__inv_2
XPHY_534 vssd1 vccd1 sky130_fd_sc_hd__tapvpwrvgnd_1