* NGSPICE file created from decred_controller.ext - technology: sky130A

* Black-box entry subcircuit for sky130_fd_sc_hd__decap_3 abstract view
.subckt sky130_fd_sc_hd__decap_3 VGND VNB VPB VPWR
.ends

* Black-box entry subcircuit for sky130_fd_sc_hd__nand4_4 abstract view
.subckt sky130_fd_sc_hd__nand4_4 A B C D VGND VNB VPB VPWR Y
.ends

* Black-box entry subcircuit for sky130_fd_sc_hd__or2_4 abstract view
.subckt sky130_fd_sc_hd__or2_4 A B VGND VNB VPB VPWR X
.ends

* Black-box entry subcircuit for sky130_fd_sc_hd__fill_1 abstract view
.subckt sky130_fd_sc_hd__fill_1 VGND VNB VPB VPWR
.ends

* Black-box entry subcircuit for sky130_fd_sc_hd__decap_4 abstract view
.subckt sky130_fd_sc_hd__decap_4 VGND VNB VPB VPWR
.ends

* Black-box entry subcircuit for sky130_fd_sc_hd__decap_12 abstract view
.subckt sky130_fd_sc_hd__decap_12 VGND VNB VPB VPWR
.ends

* Black-box entry subcircuit for sky130_fd_sc_hd__decap_8 abstract view
.subckt sky130_fd_sc_hd__decap_8 VGND VNB VPB VPWR
.ends

* Black-box entry subcircuit for sky130_fd_sc_hd__buf_2 abstract view
.subckt sky130_fd_sc_hd__buf_2 A VGND VNB VPB VPWR X
.ends

* Black-box entry subcircuit for sky130_fd_sc_hd__nor2_4 abstract view
.subckt sky130_fd_sc_hd__nor2_4 A B VGND VNB VPB VPWR Y
.ends

* Black-box entry subcircuit for sky130_fd_sc_hd__a21o_4 abstract view
.subckt sky130_fd_sc_hd__a21o_4 A1 A2 B1 VGND VNB VPB VPWR X
.ends

* Black-box entry subcircuit for sky130_fd_sc_hd__dfxtp_4 abstract view
.subckt sky130_fd_sc_hd__dfxtp_4 CLK D VGND VNB VPB VPWR Q
.ends

* Black-box entry subcircuit for sky130_fd_sc_hd__inv_2 abstract view
.subckt sky130_fd_sc_hd__inv_2 A VGND VNB VPB VPWR Y
.ends

* Black-box entry subcircuit for sky130_fd_sc_hd__nand3_4 abstract view
.subckt sky130_fd_sc_hd__nand3_4 A B C VGND VNB VPB VPWR Y
.ends

* Black-box entry subcircuit for sky130_fd_sc_hd__clkbuf_1 abstract view
.subckt sky130_fd_sc_hd__clkbuf_1 A VGND VNB VPB VPWR X
.ends

* Black-box entry subcircuit for sky130_fd_sc_hd__decap_6 abstract view
.subckt sky130_fd_sc_hd__decap_6 VGND VNB VPB VPWR
.ends

* Black-box entry subcircuit for sky130_fd_sc_hd__and2_4 abstract view
.subckt sky130_fd_sc_hd__and2_4 A B VGND VNB VPB VPWR X
.ends

* Black-box entry subcircuit for sky130_fd_sc_hd__nand2_4 abstract view
.subckt sky130_fd_sc_hd__nand2_4 A B VGND VNB VPB VPWR Y
.ends

* Black-box entry subcircuit for sky130_fd_sc_hd__o21ai_4 abstract view
.subckt sky130_fd_sc_hd__o21ai_4 A1 A2 B1 VGND VNB VPB VPWR Y
.ends

* Black-box entry subcircuit for sky130_fd_sc_hd__and4_4 abstract view
.subckt sky130_fd_sc_hd__and4_4 A B C D VGND VNB VPB VPWR X
.ends

* Black-box entry subcircuit for sky130_fd_sc_hd__clkbuf_16 abstract view
.subckt sky130_fd_sc_hd__clkbuf_16 A VGND VNB VPB VPWR X
.ends

* Black-box entry subcircuit for sky130_fd_sc_hd__o32ai_4 abstract view
.subckt sky130_fd_sc_hd__o32ai_4 A1 A2 A3 B1 B2 VGND VNB VPB VPWR Y
.ends

* Black-box entry subcircuit for sky130_fd_sc_hd__tapvpwrvgnd_1 abstract view
.subckt sky130_fd_sc_hd__tapvpwrvgnd_1 VGND VPWR
.ends

* Black-box entry subcircuit for sky130_fd_sc_hd__a21oi_4 abstract view
.subckt sky130_fd_sc_hd__a21oi_4 A1 A2 B1 VGND VNB VPB VPWR Y
.ends

* Black-box entry subcircuit for sky130_fd_sc_hd__fill_2 abstract view
.subckt sky130_fd_sc_hd__fill_2 VGND VNB VPB VPWR
.ends

* Black-box entry subcircuit for sky130_fd_sc_hd__nor3_4 abstract view
.subckt sky130_fd_sc_hd__nor3_4 A B C VGND VNB VPB VPWR Y
.ends

* Black-box entry subcircuit for sky130_fd_sc_hd__xor2_4 abstract view
.subckt sky130_fd_sc_hd__xor2_4 A B VGND VNB VPB VPWR X
.ends

* Black-box entry subcircuit for sky130_fd_sc_hd__a211o_4 abstract view
.subckt sky130_fd_sc_hd__a211o_4 A1 A2 B1 C1 VGND VNB VPB VPWR X
.ends

* Black-box entry subcircuit for sky130_fd_sc_hd__o21a_4 abstract view
.subckt sky130_fd_sc_hd__o21a_4 A1 A2 B1 VGND VNB VPB VPWR X
.ends

* Black-box entry subcircuit for sky130_fd_sc_hd__a2bb2o_4 abstract view
.subckt sky130_fd_sc_hd__a2bb2o_4 A1_N A2_N B1 B2 VGND VNB VPB VPWR X
.ends

* Black-box entry subcircuit for sky130_fd_sc_hd__a41oi_4 abstract view
.subckt sky130_fd_sc_hd__a41oi_4 A1 A2 A3 A4 B1 VGND VNB VPB VPWR Y
.ends

* Black-box entry subcircuit for sky130_fd_sc_hd__or3_4 abstract view
.subckt sky130_fd_sc_hd__or3_4 A B C VGND VNB VPB VPWR X
.ends

* Black-box entry subcircuit for sky130_fd_sc_hd__nor4_4 abstract view
.subckt sky130_fd_sc_hd__nor4_4 A B C D VGND VNB VPB VPWR Y
.ends

* Black-box entry subcircuit for sky130_fd_sc_hd__a41o_4 abstract view
.subckt sky130_fd_sc_hd__a41o_4 A1 A2 A3 A4 B1 VGND VNB VPB VPWR X
.ends

* Black-box entry subcircuit for sky130_fd_sc_hd__o41ai_4 abstract view
.subckt sky130_fd_sc_hd__o41ai_4 A1 A2 A3 A4 B1 VGND VNB VPB VPWR Y
.ends

* Black-box entry subcircuit for sky130_fd_sc_hd__and3_4 abstract view
.subckt sky130_fd_sc_hd__and3_4 A B C VGND VNB VPB VPWR X
.ends

* Black-box entry subcircuit for sky130_fd_sc_hd__a22oi_4 abstract view
.subckt sky130_fd_sc_hd__a22oi_4 A1 A2 B1 B2 VGND VNB VPB VPWR Y
.ends

* Black-box entry subcircuit for sky130_fd_sc_hd__a2bb2oi_4 abstract view
.subckt sky130_fd_sc_hd__a2bb2oi_4 A1_N A2_N B1 B2 VGND VNB VPB VPWR Y
.ends

* Black-box entry subcircuit for sky130_fd_sc_hd__o41a_4 abstract view
.subckt sky130_fd_sc_hd__o41a_4 A1 A2 A3 A4 B1 VGND VNB VPB VPWR X
.ends

* Black-box entry subcircuit for sky130_fd_sc_hd__xnor2_4 abstract view
.subckt sky130_fd_sc_hd__xnor2_4 A B VGND VNB VPB VPWR Y
.ends

* Black-box entry subcircuit for sky130_fd_sc_hd__a32oi_4 abstract view
.subckt sky130_fd_sc_hd__a32oi_4 A1 A2 A3 B1 B2 VGND VNB VPB VPWR Y
.ends

* Black-box entry subcircuit for sky130_fd_sc_hd__or4_4 abstract view
.subckt sky130_fd_sc_hd__or4_4 A B C D VGND VNB VPB VPWR X
.ends

* Black-box entry subcircuit for sky130_fd_sc_hd__o22a_4 abstract view
.subckt sky130_fd_sc_hd__o22a_4 A1 A2 B1 B2 VGND VNB VPB VPWR X
.ends

* Black-box entry subcircuit for sky130_fd_sc_hd__a21boi_4 abstract view
.subckt sky130_fd_sc_hd__a21boi_4 A1 A2 B1_N VGND VNB VPB VPWR Y
.ends

* Black-box entry subcircuit for sky130_fd_sc_hd__diode_2 abstract view
.subckt sky130_fd_sc_hd__diode_2 DIODE VGND VNB VPB VPWR
.ends

* Black-box entry subcircuit for sky130_fd_sc_hd__conb_1 abstract view
.subckt sky130_fd_sc_hd__conb_1 VGND VNB VPB VPWR HI LO
.ends

* Black-box entry subcircuit for sky130_fd_sc_hd__a2111o_4 abstract view
.subckt sky130_fd_sc_hd__a2111o_4 A1 A2 B1 C1 D1 VGND VNB VPB VPWR X
.ends

.subckt decred_controller CLK_LED DATA_AVAILABLE[0] DATA_AVAILABLE[1] DATA_AVAILABLE[2]
+ DATA_AVAILABLE[3] DATA_FROM_HASH[0] DATA_FROM_HASH[1] DATA_FROM_HASH[2] DATA_FROM_HASH[3]
+ DATA_FROM_HASH[4] DATA_FROM_HASH[5] DATA_FROM_HASH[6] DATA_FROM_HASH[7] DATA_TO_HASH[0]
+ DATA_TO_HASH[1] DATA_TO_HASH[2] DATA_TO_HASH[3] DATA_TO_HASH[4] DATA_TO_HASH[5]
+ DATA_TO_HASH[6] DATA_TO_HASH[7] EXT_RESET_N_fromHost EXT_RESET_N_toClient HASH_ADDR[0]
+ HASH_ADDR[1] HASH_ADDR[2] HASH_ADDR[3] HASH_ADDR[4] HASH_ADDR[5] HASH_EN HASH_LED
+ ID_fromClient ID_toHost IRQ_OUT_fromClient IRQ_OUT_toHost M1_CLK_IN M1_CLK_SELECT
+ MACRO_RD_SELECT[0] MACRO_RD_SELECT[1] MACRO_RD_SELECT[2] MACRO_RD_SELECT[3] MACRO_WR_SELECT[0]
+ MACRO_WR_SELECT[1] MACRO_WR_SELECT[2] MACRO_WR_SELECT[3] MISO_fromClient MISO_toHost
+ MOSI_fromHost MOSI_toClient PLL_INPUT S1_CLK_IN S1_CLK_SELECT SCLK_fromHost SCLK_toClient
+ SCSN_fromHost SCSN_toClient THREAD_COUNT[0] THREAD_COUNT[1] THREAD_COUNT[2] THREAD_COUNT[3]
+ m1_clk_local one zero vccd1 vssd1 vccd2_uq0 vccd2 vssd2 vdda1_uq0 vdda1 vssa1 vdda2_uq0
+ vdda2 vssa2
XFILLER_54_258 vssd1 vssd1 vccd1 vccd1 sky130_fd_sc_hd__decap_3
X_2037_ _2032_/C _2047_/A _2043_/D _1995_/B vssd1 vssd1 vccd1 vccd1 _2038_/B sky130_fd_sc_hd__nand4_4
X_2106_ _1222_/A SCSN_fromHost vssd1 vssd1 vccd1 vccd1 _2458_/D sky130_fd_sc_hd__or2_4
XFILLER_18_417 vssd1 vssd1 vccd1 vccd1 sky130_fd_sc_hd__fill_1
XFILLER_53_280 vssd1 vssd1 vccd1 vccd1 sky130_fd_sc_hd__decap_4
XFILLER_45_269 vssd1 vssd1 vccd1 vccd1 sky130_fd_sc_hd__decap_12
XFILLER_42_84 vssd1 vssd1 vccd1 vccd1 sky130_fd_sc_hd__decap_8
XFILLER_13_199 vssd1 vssd1 vccd1 vccd1 sky130_fd_sc_hd__decap_4
XFILLER_5_365 vssd1 vssd1 vccd1 vccd1 sky130_fd_sc_hd__fill_1
X_1270_ _1346_/A vssd1 vssd1 vccd1 vccd1 _2010_/B sky130_fd_sc_hd__buf_2
XFILLER_36_203 vssd1 vssd1 vccd1 vccd1 sky130_fd_sc_hd__decap_4
X_1606_ _1589_/A _1567_/C vssd1 vssd1 vccd1 vccd1 _1606_/Y sky130_fd_sc_hd__nor2_4
X_1399_ _1231_/A _1397_/Y _1398_/Y vssd1 vssd1 vccd1 vccd1 _1399_/X sky130_fd_sc_hd__a21o_4
X_1468_ _1428_/Y vssd1 vssd1 vccd1 vccd1 _1548_/D sky130_fd_sc_hd__buf_2
X_1537_ _1424_/Y vssd1 vssd1 vccd1 vccd1 _1556_/B sky130_fd_sc_hd__buf_2
X_2586_ _2446_/CLK _2586_/D vssd1 vssd1 vccd1 vccd1 _2127_/C sky130_fd_sc_hd__dfxtp_4
XFILLER_63_39 vssd1 vssd1 vccd1 vccd1 sky130_fd_sc_hd__decap_4
XFILLER_27_236 vssd1 vssd1 vccd1 vccd1 sky130_fd_sc_hd__decap_8
XFILLER_12_32 vssd1 vssd1 vccd1 vccd1 sky130_fd_sc_hd__decap_4
XFILLER_53_50 vssd1 vssd1 vccd1 vccd1 sky130_fd_sc_hd__decap_4
X_2440_ _2552_/CLK _2143_/Y vssd1 vssd1 vccd1 vccd1 _2440_/Q sky130_fd_sc_hd__dfxtp_4
X_2371_ _2374_/CLK _2370_/Q vssd1 vssd1 vccd1 vccd1 _2372_/D sky130_fd_sc_hd__dfxtp_4
X_1253_ _2364_/D vssd1 vssd1 vccd1 vccd1 _1269_/A sky130_fd_sc_hd__inv_2
X_1322_ _1239_/Y _1321_/X _1316_/D vssd1 vssd1 vccd1 vccd1 _1322_/Y sky130_fd_sc_hd__nand3_4
Xclkbuf_1_0_0_m1_clk_local clkbuf_0_m1_clk_local/X vssd1 vssd1 vccd1 vccd1 clkbuf_1_0_0_m1_clk_local/X
+ sky130_fd_sc_hd__clkbuf_1
XFILLER_49_361 vssd1 vssd1 vccd1 vccd1 sky130_fd_sc_hd__decap_4
X_1184_ _1184_/A vssd1 vssd1 vccd1 vccd1 _1185_/A sky130_fd_sc_hd__buf_2
XFILLER_17_291 vssd1 vssd1 vccd1 vccd1 sky130_fd_sc_hd__decap_6
XFILLER_32_283 vssd1 vssd1 vccd1 vccd1 sky130_fd_sc_hd__decap_4
X_2569_ _2454_/CLK _2569_/D vssd1 vssd1 vccd1 vccd1 _1830_/C sky130_fd_sc_hd__dfxtp_4
X_2638_ _2635_/CLK _1297_/Y vssd1 vssd1 vccd1 vccd1 _1295_/A sky130_fd_sc_hd__dfxtp_4
XFILLER_59_114 vssd1 vssd1 vccd1 vccd1 sky130_fd_sc_hd__decap_8
XFILLER_55_397 vssd1 vssd1 vccd1 vccd1 sky130_fd_sc_hd__decap_8
XFILLER_38_309 vssd1 vssd1 vccd1 vccd1 sky130_fd_sc_hd__decap_6
XFILLER_2_154 vssd1 vssd1 vccd1 vccd1 sky130_fd_sc_hd__decap_6
XFILLER_61_367 vssd1 vssd1 vccd1 vccd1 sky130_fd_sc_hd__decap_12
X_1871_ _2112_/A DATA_FROM_HASH[7] vssd1 vssd1 vccd1 vccd1 _2566_/D sky130_fd_sc_hd__and2_4
X_1940_ _1938_/A _1746_/Y vssd1 vssd1 vccd1 vccd1 _1940_/Y sky130_fd_sc_hd__nor2_4
XFILLER_9_66 vssd1 vssd1 vccd1 vccd1 sky130_fd_sc_hd__decap_6
X_2423_ _2404_/CLK _2423_/D vssd1 vssd1 vccd1 vccd1 _2423_/Q sky130_fd_sc_hd__dfxtp_4
X_1236_ _1376_/B _1236_/B vssd1 vssd1 vccd1 vccd1 _1237_/A sky130_fd_sc_hd__nand2_4
X_2354_ _2097_/B _1202_/B _2353_/X vssd1 vssd1 vccd1 vccd1 _2354_/Y sky130_fd_sc_hd__o21ai_4
XFILLER_37_331 vssd1 vssd1 vccd1 vccd1 sky130_fd_sc_hd__decap_8
X_1305_ _1318_/B _1308_/C _1243_/X _1305_/D vssd1 vssd1 vccd1 vccd1 _1305_/X sky130_fd_sc_hd__and4_4
Xclkbuf_0_m1_clk_local m1_clk_local vssd1 vssd1 vccd1 vccd1 clkbuf_0_m1_clk_local/X
+ sky130_fd_sc_hd__clkbuf_16
X_2285_ _2276_/X _2253_/Y _2278_/X _1924_/B _2280_/X vssd1 vssd1 vccd1 vccd1 _2414_/D
+ sky130_fd_sc_hd__o32ai_4
XFILLER_64_194 vssd1 vssd1 vccd1 vccd1 sky130_fd_sc_hd__decap_12
XFILLER_64_172 vssd1 vssd1 vccd1 vccd1 sky130_fd_sc_hd__decap_3
XFILLER_37_386 vssd1 vssd1 vccd1 vccd1 sky130_fd_sc_hd__decap_8
XFILLER_55_150 vssd1 vssd1 vccd1 vccd1 sky130_fd_sc_hd__decap_8
XFILLER_43_301 vssd1 vssd1 vccd1 vccd1 sky130_fd_sc_hd__decap_4
XPHY_576 vssd1 vccd1 sky130_fd_sc_hd__tapvpwrvgnd_1
XPHY_565 vssd1 vccd1 sky130_fd_sc_hd__tapvpwrvgnd_1
XPHY_554 vssd1 vccd1 sky130_fd_sc_hd__tapvpwrvgnd_1
XPHY_543 vssd1 vccd1 sky130_fd_sc_hd__tapvpwrvgnd_1
XPHY_532 vssd1 vccd1 sky130_fd_sc_hd__tapvpwrvgnd_1
XPHY_521 vssd1 vccd1 sky130_fd_sc_hd__tapvpwrvgnd_1
XPHY_510 vssd1 vccd1 sky130_fd_sc_hd__tapvpwrvgnd_1
XFILLER_34_30 vssd1 vssd1 vccd1 vccd1 sky130_fd_sc_hd__fill_1
XFILLER_11_275 vssd1 vssd1 vccd1 vccd1 sky130_fd_sc_hd__decap_4
XFILLER_50_62 vssd1 vssd1 vccd1 vccd1 sky130_fd_sc_hd__decap_4
XFILLER_66_404 vssd1 vssd1 vccd1 vccd1 sky130_fd_sc_hd__decap_12
X_2070_ _2070_/A vssd1 vssd1 vccd1 vccd1 _2070_/Y sky130_fd_sc_hd__inv_2
Xclkbuf_3_3_0_m1_clk_local clkbuf_3_3_0_m1_clk_local/A vssd1 vssd1 vccd1 vccd1 clkbuf_3_3_0_m1_clk_local/X
+ sky130_fd_sc_hd__clkbuf_1
XFILLER_61_142 vssd1 vssd1 vccd1 vccd1 sky130_fd_sc_hd__fill_1
XFILLER_46_183 vssd1 vssd1 vccd1 vccd1 sky130_fd_sc_hd__decap_8
XFILLER_19_342 vssd1 vssd1 vccd1 vccd1 sky130_fd_sc_hd__decap_4
X_1785_ _1783_/Y _1784_/Y _2100_/A vssd1 vssd1 vccd1 vccd1 _2588_/D sky130_fd_sc_hd__a21oi_4
X_1854_ _1854_/A _1854_/B vssd1 vssd1 vccd1 vccd1 _1854_/X sky130_fd_sc_hd__or2_4
X_1923_ _2151_/B vssd1 vssd1 vccd1 vccd1 _1924_/B sky130_fd_sc_hd__inv_2
X_2406_ _2552_/CLK _2406_/D vssd1 vssd1 vccd1 vccd1 HASH_LED sky130_fd_sc_hd__dfxtp_4
XFILLER_55_18 vssd1 vssd1 vccd1 vccd1 sky130_fd_sc_hd__decap_4
X_2337_ _1574_/Y _2337_/B _1683_/Y vssd1 vssd1 vccd1 vccd1 _2338_/A sky130_fd_sc_hd__nand3_4
X_1219_ _2384_/Q vssd1 vssd1 vccd1 vccd1 _1219_/X sky130_fd_sc_hd__buf_2
XFILLER_29_139 vssd1 vssd1 vccd1 vccd1 sky130_fd_sc_hd__decap_4
XFILLER_29_128 vssd1 vssd1 vccd1 vccd1 sky130_fd_sc_hd__decap_4
X_2268_ _1477_/X vssd1 vssd1 vccd1 vccd1 _2268_/Y sky130_fd_sc_hd__inv_2
X_2199_ _1623_/Y _2428_/Q vssd1 vssd1 vccd1 vccd1 _2199_/Y sky130_fd_sc_hd__nand2_4
XFILLER_40_337 vssd1 vssd1 vccd1 vccd1 sky130_fd_sc_hd__decap_3
XFILLER_40_326 vssd1 vssd1 vccd1 vccd1 sky130_fd_sc_hd__decap_8
XFILLER_25_367 vssd1 vssd1 vccd1 vccd1 sky130_fd_sc_hd__decap_4
XFILLER_20_32 vssd1 vssd1 vccd1 vccd1 sky130_fd_sc_hd__fill_2
XFILLER_29_52 vssd1 vssd1 vccd1 vccd1 sky130_fd_sc_hd__decap_4
XFILLER_20_87 vssd1 vssd1 vccd1 vccd1 sky130_fd_sc_hd__decap_4
XFILLER_16_356 vssd1 vssd1 vccd1 vccd1 sky130_fd_sc_hd__decap_4
XFILLER_61_94 vssd1 vssd1 vccd1 vccd1 sky130_fd_sc_hd__decap_6
XPHY_395 vssd1 vccd1 sky130_fd_sc_hd__tapvpwrvgnd_1
XPHY_384 vssd1 vccd1 sky130_fd_sc_hd__tapvpwrvgnd_1
XPHY_373 vssd1 vccd1 sky130_fd_sc_hd__tapvpwrvgnd_1
XPHY_362 vssd1 vccd1 sky130_fd_sc_hd__tapvpwrvgnd_1
XPHY_351 vssd1 vccd1 sky130_fd_sc_hd__tapvpwrvgnd_1
XPHY_340 vssd1 vccd1 sky130_fd_sc_hd__tapvpwrvgnd_1
X_1570_ _1570_/A vssd1 vssd1 vccd1 vccd1 _1571_/A sky130_fd_sc_hd__buf_2
X_2053_ _1992_/A _1990_/Y _2059_/A vssd1 vssd1 vccd1 vccd1 _2053_/Y sky130_fd_sc_hd__nor3_4
X_2122_ _1886_/A _2121_/X _1420_/A vssd1 vssd1 vccd1 vccd1 _2122_/Y sky130_fd_sc_hd__nand3_4
XFILLER_13_3 vssd1 vssd1 vccd1 vccd1 sky130_fd_sc_hd__decap_8
XFILLER_34_120 vssd1 vssd1 vccd1 vccd1 sky130_fd_sc_hd__decap_4
XFILLER_22_315 vssd1 vssd1 vccd1 vccd1 sky130_fd_sc_hd__decap_4
X_1837_ _1837_/A vssd1 vssd1 vccd1 vccd1 _2570_/D sky130_fd_sc_hd__inv_2
X_1768_ _1438_/B _2401_/Q vssd1 vssd1 vccd1 vccd1 _1768_/X sky130_fd_sc_hd__xor2_4
X_1906_ _2154_/B vssd1 vssd1 vccd1 vccd1 _1906_/Y sky130_fd_sc_hd__inv_2
X_1699_ _1693_/Y _1698_/Y _1454_/X vssd1 vssd1 vccd1 vccd1 _2594_/D sky130_fd_sc_hd__a21oi_4
XFILLER_1_219 vssd1 vssd1 vccd1 vccd1 sky130_fd_sc_hd__decap_4
XFILLER_13_348 vssd1 vssd1 vccd1 vccd1 sky130_fd_sc_hd__fill_1
XFILLER_63_226 vssd1 vssd1 vccd1 vccd1 sky130_fd_sc_hd__decap_4
XFILLER_48_289 vssd1 vssd1 vccd1 vccd1 sky130_fd_sc_hd__fill_1
XFILLER_48_245 vssd1 vssd1 vccd1 vccd1 sky130_fd_sc_hd__decap_4
XFILLER_31_123 vssd1 vssd1 vccd1 vccd1 sky130_fd_sc_hd__fill_2
XPHY_170 vssd1 vccd1 sky130_fd_sc_hd__tapvpwrvgnd_1
XFILLER_16_142 vssd1 vssd1 vccd1 vccd1 sky130_fd_sc_hd__decap_4
XFILLER_16_197 vssd1 vssd1 vccd1 vccd1 sky130_fd_sc_hd__decap_4
X_1622_ _1622_/A vssd1 vssd1 vccd1 vccd1 _1622_/Y sky130_fd_sc_hd__inv_2
XPHY_181 vssd1 vccd1 sky130_fd_sc_hd__tapvpwrvgnd_1
XPHY_192 vssd1 vccd1 sky130_fd_sc_hd__tapvpwrvgnd_1
XFILLER_8_341 vssd1 vssd1 vccd1 vccd1 sky130_fd_sc_hd__decap_8
X_1553_ _1490_/A _1527_/Y _1564_/A _1552_/Y vssd1 vssd1 vccd1 vccd1 _1557_/A sky130_fd_sc_hd__a211o_4
X_1484_ _1484_/A vssd1 vssd1 vccd1 vccd1 _1487_/B sky130_fd_sc_hd__buf_2
X_2036_ _1995_/B _2035_/X _1374_/X vssd1 vssd1 vccd1 vccd1 _2038_/A sky130_fd_sc_hd__o21a_4
X_2105_ _1222_/A _2105_/B vssd1 vssd1 vccd1 vccd1 _2105_/X sky130_fd_sc_hd__or2_4
XFILLER_39_245 vssd1 vssd1 vccd1 vccd1 sky130_fd_sc_hd__fill_2
XFILLER_26_97 vssd1 vssd1 vccd1 vccd1 sky130_fd_sc_hd__fill_1
XFILLER_26_20 vssd1 vssd1 vccd1 vccd1 sky130_fd_sc_hd__decap_4
XFILLER_9_116 vssd1 vssd1 vccd1 vccd1 sky130_fd_sc_hd__decap_6
XFILLER_13_123 vssd1 vssd1 vccd1 vccd1 sky130_fd_sc_hd__fill_2
XFILLER_42_63 vssd1 vssd1 vccd1 vccd1 sky130_fd_sc_hd__decap_4
XFILLER_42_41 vssd1 vssd1 vccd1 vccd1 sky130_fd_sc_hd__decap_4
XFILLER_42_30 vssd1 vssd1 vccd1 vccd1 sky130_fd_sc_hd__fill_1
XFILLER_5_300 vssd1 vssd1 vccd1 vccd1 sky130_fd_sc_hd__decap_4
XFILLER_9_138 vssd1 vssd1 vccd1 vccd1 sky130_fd_sc_hd__fill_1
XFILLER_5_388 vssd1 vssd1 vccd1 vccd1 sky130_fd_sc_hd__decap_12
XFILLER_3_79 vssd1 vssd1 vccd1 vccd1 sky130_fd_sc_hd__decap_4
XFILLER_3_57 vssd1 vssd1 vccd1 vccd1 sky130_fd_sc_hd__decap_4
XFILLER_36_248 vssd1 vssd1 vccd1 vccd1 sky130_fd_sc_hd__decap_8
X_1605_ _1605_/A vssd1 vssd1 vccd1 vccd1 _1605_/X sky130_fd_sc_hd__buf_2
X_1536_ _1525_/Y _1532_/Y _1535_/X vssd1 vssd1 vccd1 vccd1 _2604_/D sky130_fd_sc_hd__a21oi_4
X_2585_ _2399_/CLK _1796_/X vssd1 vssd1 vccd1 vccd1 _1477_/A sky130_fd_sc_hd__dfxtp_4
X_1398_ _1231_/A _1397_/Y _1374_/X vssd1 vssd1 vccd1 vccd1 _1398_/Y sky130_fd_sc_hd__o21ai_4
X_1467_ _1467_/A vssd1 vssd1 vccd1 vccd1 _1467_/Y sky130_fd_sc_hd__inv_2
X_2019_ _2019_/A _2019_/B _2019_/C vssd1 vssd1 vccd1 vccd1 _2019_/Y sky130_fd_sc_hd__nor3_4
XFILLER_35_281 vssd1 vssd1 vccd1 vccd1 sky130_fd_sc_hd__decap_6
XFILLER_12_22 vssd1 vssd1 vccd1 vccd1 sky130_fd_sc_hd__decap_6
XFILLER_12_88 vssd1 vssd1 vccd1 vccd1 sky130_fd_sc_hd__decap_4
XFILLER_37_96 vssd1 vssd1 vccd1 vccd1 sky130_fd_sc_hd__decap_8
XFILLER_18_215 vssd1 vssd1 vccd1 vccd1 sky130_fd_sc_hd__decap_4
XFILLER_18_248 vssd1 vssd1 vccd1 vccd1 sky130_fd_sc_hd__decap_8
XFILLER_53_62 vssd1 vssd1 vccd1 vccd1 sky130_fd_sc_hd__decap_4
XFILLER_41_240 vssd1 vssd1 vccd1 vccd1 sky130_fd_sc_hd__decap_4
X_2370_ _2374_/CLK _2369_/Q vssd1 vssd1 vccd1 vccd1 _2370_/Q sky130_fd_sc_hd__dfxtp_4
X_1321_ _1241_/Y vssd1 vssd1 vccd1 vccd1 _1321_/X sky130_fd_sc_hd__buf_2
X_1252_ _1252_/A _1641_/A vssd1 vssd1 vccd1 vccd1 _1263_/A sky130_fd_sc_hd__nand2_4
XFILLER_1_391 vssd1 vssd1 vccd1 vccd1 sky130_fd_sc_hd__decap_12
XFILLER_64_398 vssd1 vssd1 vccd1 vccd1 sky130_fd_sc_hd__decap_12
X_1183_ _2353_/A _1179_/X _1182_/X vssd1 vssd1 vccd1 vccd1 _1183_/Y sky130_fd_sc_hd__o21ai_4
Xclkbuf_3_4_0_addressalyzerBlock.SPI_CLK clkbuf_3_5_0_addressalyzerBlock.SPI_CLK/A
+ vssd1 vssd1 vccd1 vccd1 clkbuf_4_9_0_addressalyzerBlock.SPI_CLK/A sky130_fd_sc_hd__clkbuf_1
X_2499_ _2511_/CLK _1971_/X vssd1 vssd1 vccd1 vccd1 MACRO_WR_SELECT[0] sky130_fd_sc_hd__dfxtp_4
X_2568_ _2464_/CLK _1863_/Y vssd1 vssd1 vccd1 vccd1 _1862_/B sky130_fd_sc_hd__dfxtp_4
X_2637_ _2635_/CLK _2637_/D vssd1 vssd1 vccd1 vccd1 _1299_/A sky130_fd_sc_hd__dfxtp_4
X_1519_ _1470_/X _1440_/B _1518_/Y vssd1 vssd1 vccd1 vccd1 _1519_/Y sky130_fd_sc_hd__o21ai_4
XFILLER_55_343 vssd1 vssd1 vccd1 vccd1 sky130_fd_sc_hd__fill_1
XFILLER_15_207 vssd1 vssd1 vccd1 vccd1 sky130_fd_sc_hd__decap_8
XFILLER_23_262 vssd1 vssd1 vccd1 vccd1 sky130_fd_sc_hd__decap_4
XFILLER_2_133 vssd1 vssd1 vccd1 vccd1 sky130_fd_sc_hd__decap_4
XFILLER_46_332 vssd1 vssd1 vccd1 vccd1 sky130_fd_sc_hd__decap_4
XFILLER_61_379 vssd1 vssd1 vccd1 vccd1 sky130_fd_sc_hd__decap_12
X_1870_ _1840_/B vssd1 vssd1 vccd1 vccd1 _2112_/A sky130_fd_sc_hd__buf_2
X_2353_ _2353_/A _1198_/B vssd1 vssd1 vccd1 vccd1 _2353_/X sky130_fd_sc_hd__or2_4
XFILLER_43_3 vssd1 vssd1 vccd1 vccd1 sky130_fd_sc_hd__decap_12
X_2422_ _2404_/CLK _2422_/D vssd1 vssd1 vccd1 vccd1 _2155_/A sky130_fd_sc_hd__dfxtp_4
XFILLER_56_118 vssd1 vssd1 vccd1 vccd1 sky130_fd_sc_hd__decap_12
X_1235_ _1234_/Y vssd1 vssd1 vccd1 vccd1 _1365_/D sky130_fd_sc_hd__inv_2
XFILLER_37_321 vssd1 vssd1 vccd1 vccd1 sky130_fd_sc_hd__decap_6
X_1304_ _2635_/Q vssd1 vssd1 vccd1 vccd1 _1308_/C sky130_fd_sc_hd__buf_2
X_2284_ _2276_/X _2133_/Y _2278_/X _1744_/B _2280_/X vssd1 vssd1 vccd1 vccd1 _2284_/Y
+ sky130_fd_sc_hd__o32ai_4
X_1999_ _1999_/A _1998_/Y _2011_/A _2492_/Q vssd1 vssd1 vccd1 vccd1 _2010_/C sky130_fd_sc_hd__nand4_4
XFILLER_20_243 vssd1 vssd1 vccd1 vccd1 sky130_fd_sc_hd__decap_8
XPHY_500 vssd1 vccd1 sky130_fd_sc_hd__tapvpwrvgnd_1
XFILLER_43_357 vssd1 vssd1 vccd1 vccd1 sky130_fd_sc_hd__decap_8
XFILLER_28_332 vssd1 vssd1 vccd1 vccd1 sky130_fd_sc_hd__decap_4
XFILLER_18_32 vssd1 vssd1 vccd1 vccd1 sky130_fd_sc_hd__decap_12
XPHY_577 vssd1 vccd1 sky130_fd_sc_hd__tapvpwrvgnd_1
XPHY_566 vssd1 vccd1 sky130_fd_sc_hd__tapvpwrvgnd_1
XPHY_555 vssd1 vccd1 sky130_fd_sc_hd__tapvpwrvgnd_1
XPHY_544 vssd1 vccd1 sky130_fd_sc_hd__tapvpwrvgnd_1
XPHY_533 vssd1 vccd1 sky130_fd_sc_hd__tapvpwrvgnd_1
XPHY_522 vssd1 vccd1 sky130_fd_sc_hd__tapvpwrvgnd_1
XPHY_511 vssd1 vccd1 sky130_fd_sc_hd__tapvpwrvgnd_1
XFILLER_50_30 vssd1 vssd1 vccd1 vccd1 sky130_fd_sc_hd__fill_1
XFILLER_11_298 vssd1 vssd1 vccd1 vccd1 sky130_fd_sc_hd__decap_6
XFILLER_66_416 vssd1 vssd1 vccd1 vccd1 sky130_fd_sc_hd__fill_2
XFILLER_59_72 vssd1 vssd1 vccd1 vccd1 sky130_fd_sc_hd__decap_4
XFILLER_61_198 vssd1 vssd1 vccd1 vccd1 sky130_fd_sc_hd__decap_4
XFILLER_61_121 vssd1 vssd1 vccd1 vccd1 sky130_fd_sc_hd__fill_1
XFILLER_34_302 vssd1 vssd1 vccd1 vccd1 sky130_fd_sc_hd__decap_4
X_1922_ _1933_/A _2537_/Q vssd1 vssd1 vccd1 vccd1 _2531_/D sky130_fd_sc_hd__and2_4
X_1784_ _1678_/Y _2349_/A vssd1 vssd1 vccd1 vccd1 _1784_/Y sky130_fd_sc_hd__nand2_4
X_1853_ _1850_/X _1852_/X _1472_/A vssd1 vssd1 vccd1 vccd1 _1853_/Y sky130_fd_sc_hd__a21oi_4
X_2336_ _2337_/B _2328_/X _2335_/Y vssd1 vssd1 vccd1 vccd1 _2388_/D sky130_fd_sc_hd__o21ai_4
XFILLER_29_118 vssd1 vssd1 vccd1 vccd1 sky130_fd_sc_hd__decap_4
X_2405_ _2552_/CLK _2305_/Y vssd1 vssd1 vccd1 vccd1 _1232_/A sky130_fd_sc_hd__dfxtp_4
X_1218_ _1218_/A _1218_/B vssd1 vssd1 vccd1 vccd1 _1218_/Y sky130_fd_sc_hd__nand2_4
X_2267_ _2266_/Y _2262_/X _2258_/X _1937_/Y _2264_/X vssd1 vssd1 vccd1 vccd1 _2425_/D
+ sky130_fd_sc_hd__o32ai_4
X_2198_ _2196_/Y _1708_/X _2198_/C vssd1 vssd1 vccd1 vccd1 _2198_/Y sky130_fd_sc_hd__nand3_4
XFILLER_4_228 vssd1 vssd1 vccd1 vccd1 sky130_fd_sc_hd__decap_8
XFILLER_45_74 vssd1 vssd1 vccd1 vccd1 sky130_fd_sc_hd__decap_4
XFILLER_43_132 vssd1 vssd1 vccd1 vccd1 sky130_fd_sc_hd__decap_4
XPHY_352 vssd1 vccd1 sky130_fd_sc_hd__tapvpwrvgnd_1
XPHY_341 vssd1 vccd1 sky130_fd_sc_hd__tapvpwrvgnd_1
XPHY_330 vssd1 vccd1 sky130_fd_sc_hd__tapvpwrvgnd_1
XFILLER_28_173 vssd1 vssd1 vccd1 vccd1 sky130_fd_sc_hd__decap_6
XPHY_396 vssd1 vccd1 sky130_fd_sc_hd__tapvpwrvgnd_1
XPHY_385 vssd1 vccd1 sky130_fd_sc_hd__tapvpwrvgnd_1
XPHY_374 vssd1 vccd1 sky130_fd_sc_hd__tapvpwrvgnd_1
XPHY_363 vssd1 vccd1 sky130_fd_sc_hd__tapvpwrvgnd_1
XFILLER_3_272 vssd1 vssd1 vccd1 vccd1 sky130_fd_sc_hd__decap_4
X_2052_ _2014_/X _2040_/X _2051_/Y vssd1 vssd1 vccd1 vccd1 _2482_/D sky130_fd_sc_hd__a21oi_4
XFILLER_54_408 vssd1 vssd1 vccd1 vccd1 sky130_fd_sc_hd__fill_1
XFILLER_19_173 vssd1 vssd1 vccd1 vccd1 sky130_fd_sc_hd__decap_8
XFILLER_19_184 vssd1 vssd1 vccd1 vccd1 sky130_fd_sc_hd__fill_2
X_2121_ _1696_/A vssd1 vssd1 vccd1 vccd1 _2121_/X sky130_fd_sc_hd__buf_2
XFILLER_34_154 vssd1 vssd1 vccd1 vccd1 sky130_fd_sc_hd__decap_6
X_1905_ _1911_/A _1904_/Y vssd1 vssd1 vccd1 vccd1 _1905_/Y sky130_fd_sc_hd__nor2_4
XFILLER_22_349 vssd1 vssd1 vccd1 vccd1 sky130_fd_sc_hd__decap_4
X_1836_ _1830_/B _1834_/Y _1835_/Y vssd1 vssd1 vccd1 vccd1 _1837_/A sky130_fd_sc_hd__a21o_4
X_1698_ _1698_/A _1697_/Y _1689_/Y _1687_/Y vssd1 vssd1 vccd1 vccd1 _1698_/Y sky130_fd_sc_hd__nand4_4
XFILLER_30_393 vssd1 vssd1 vccd1 vccd1 sky130_fd_sc_hd__decap_4
X_1767_ _1483_/B _1767_/B vssd1 vssd1 vccd1 vccd1 _1767_/X sky130_fd_sc_hd__xor2_4
X_2319_ _1771_/Y _2310_/X _1503_/A _2312_/X vssd1 vssd1 vccd1 vccd1 _2319_/X sky130_fd_sc_hd__a2bb2o_4
XFILLER_65_290 vssd1 vssd1 vccd1 vccd1 sky130_fd_sc_hd__decap_12
XFILLER_40_113 vssd1 vssd1 vccd1 vccd1 sky130_fd_sc_hd__decap_6
XFILLER_25_165 vssd1 vssd1 vccd1 vccd1 sky130_fd_sc_hd__decap_4
XFILLER_15_11 vssd1 vssd1 vccd1 vccd1 sky130_fd_sc_hd__fill_1
XFILLER_15_66 vssd1 vssd1 vccd1 vccd1 sky130_fd_sc_hd__decap_4
XFILLER_40_157 vssd1 vssd1 vccd1 vccd1 sky130_fd_sc_hd__decap_4
XFILLER_31_54 vssd1 vssd1 vccd1 vccd1 sky130_fd_sc_hd__decap_6
XFILLER_15_88 vssd1 vssd1 vccd1 vccd1 sky130_fd_sc_hd__decap_4
XFILLER_21_382 vssd1 vssd1 vccd1 vccd1 sky130_fd_sc_hd__decap_4
XFILLER_48_213 vssd1 vssd1 vccd1 vccd1 sky130_fd_sc_hd__fill_1
XFILLER_31_179 vssd1 vssd1 vccd1 vccd1 sky130_fd_sc_hd__decap_4
XPHY_171 vssd1 vccd1 sky130_fd_sc_hd__tapvpwrvgnd_1
XPHY_160 vssd1 vccd1 sky130_fd_sc_hd__tapvpwrvgnd_1
XPHY_182 vssd1 vccd1 sky130_fd_sc_hd__tapvpwrvgnd_1
XPHY_193 vssd1 vccd1 sky130_fd_sc_hd__tapvpwrvgnd_1
XFILLER_16_187 vssd1 vssd1 vccd1 vccd1 sky130_fd_sc_hd__fill_1
X_1552_ _1556_/B _1548_/D _1544_/Y vssd1 vssd1 vccd1 vccd1 _1552_/Y sky130_fd_sc_hd__a21oi_4
X_1621_ _2293_/C _2181_/A _1704_/A _1620_/Y vssd1 vssd1 vccd1 vccd1 _1621_/X sky130_fd_sc_hd__a211o_4
X_2104_ _2104_/A _2091_/Y _2103_/Y _2104_/D vssd1 vssd1 vccd1 vccd1 _2460_/D sky130_fd_sc_hd__and4_4
X_1483_ _1482_/Y _1483_/B _2604_/Q _1483_/D vssd1 vssd1 vccd1 vccd1 _1484_/A sky130_fd_sc_hd__and4_4
X_2035_ _2029_/Y _2030_/X _2016_/X _2043_/D vssd1 vssd1 vccd1 vccd1 _2035_/X sky130_fd_sc_hd__and4_4
X_1819_ _2575_/Q _1809_/X _1818_/X vssd1 vssd1 vccd1 vccd1 _2576_/D sky130_fd_sc_hd__o21a_4
XFILLER_45_238 vssd1 vssd1 vccd1 vccd1 sky130_fd_sc_hd__decap_6
XFILLER_53_293 vssd1 vssd1 vccd1 vccd1 sky130_fd_sc_hd__decap_4
XFILLER_13_146 vssd1 vssd1 vccd1 vccd1 sky130_fd_sc_hd__decap_4
XFILLER_13_179 vssd1 vssd1 vccd1 vccd1 sky130_fd_sc_hd__decap_4
XFILLER_5_367 vssd1 vssd1 vccd1 vccd1 sky130_fd_sc_hd__fill_2
XFILLER_5_356 vssd1 vssd1 vccd1 vccd1 sky130_fd_sc_hd__fill_1
XFILLER_3_47 vssd1 vssd1 vccd1 vccd1 sky130_fd_sc_hd__decap_6
XFILLER_44_260 vssd1 vssd1 vccd1 vccd1 sky130_fd_sc_hd__decap_4
XFILLER_36_227 vssd1 vssd1 vccd1 vccd1 sky130_fd_sc_hd__decap_4
XFILLER_32_411 vssd1 vssd1 vccd1 vccd1 sky130_fd_sc_hd__decap_6
XFILLER_8_172 vssd1 vssd1 vccd1 vccd1 sky130_fd_sc_hd__decap_4
X_1604_ _1604_/A _2600_/Q vssd1 vssd1 vccd1 vccd1 _1605_/A sky130_fd_sc_hd__and2_4
X_2584_ _2399_/CLK _1798_/X vssd1 vssd1 vccd1 vccd1 _1490_/A sky130_fd_sc_hd__dfxtp_4
X_1535_ _1556_/A _1534_/X _1500_/X vssd1 vssd1 vccd1 vccd1 _1535_/X sky130_fd_sc_hd__a21o_4
X_1397_ _1397_/A _1363_/A _1363_/C vssd1 vssd1 vccd1 vccd1 _1397_/Y sky130_fd_sc_hd__nor3_4
XFILLER_27_249 vssd1 vssd1 vccd1 vccd1 sky130_fd_sc_hd__fill_1
X_1466_ _1466_/A vssd1 vssd1 vccd1 vccd1 _1469_/A sky130_fd_sc_hd__inv_2
X_2018_ _2488_/Q _2017_/X _1984_/A _1999_/A _2011_/A vssd1 vssd1 vccd1 vccd1 _2019_/C
+ sky130_fd_sc_hd__a41oi_4
XFILLER_50_274 vssd1 vssd1 vccd1 vccd1 sky130_fd_sc_hd__fill_1
XFILLER_58_396 vssd1 vssd1 vccd1 vccd1 sky130_fd_sc_hd__fill_1
XFILLER_37_42 vssd1 vssd1 vccd1 vccd1 sky130_fd_sc_hd__decap_4
XFILLER_33_208 vssd1 vssd1 vccd1 vccd1 sky130_fd_sc_hd__decap_6
XFILLER_26_271 vssd1 vssd1 vccd1 vccd1 sky130_fd_sc_hd__decap_4
X_1320_ _1320_/A vssd1 vssd1 vccd1 vccd1 _1320_/Y sky130_fd_sc_hd__inv_2
XFILLER_5_153 vssd1 vssd1 vccd1 vccd1 sky130_fd_sc_hd__fill_1
X_1182_ _2650_/Q _1194_/B vssd1 vssd1 vccd1 vccd1 _1182_/X sky130_fd_sc_hd__or2_4
X_1251_ _1251_/A vssd1 vssd1 vccd1 vccd1 _1641_/A sky130_fd_sc_hd__inv_2
XFILLER_32_274 vssd1 vssd1 vccd1 vccd1 sky130_fd_sc_hd__fill_1
XFILLER_24_219 vssd1 vssd1 vccd1 vccd1 sky130_fd_sc_hd__decap_4
X_2636_ _2476_/CLK _2636_/D vssd1 vssd1 vccd1 vccd1 _2636_/Q sky130_fd_sc_hd__dfxtp_4
X_2498_ _2508_/CLK _1975_/Y vssd1 vssd1 vccd1 vccd1 _1973_/A sky130_fd_sc_hd__dfxtp_4
X_2567_ _2374_/CLK _2567_/D vssd1 vssd1 vccd1 vccd1 _1868_/A sky130_fd_sc_hd__dfxtp_4
X_1449_ _1441_/Y _1449_/B vssd1 vssd1 vccd1 vccd1 _1449_/Y sky130_fd_sc_hd__nand2_4
X_1518_ _1470_/X _1482_/Y _1473_/C _1466_/A _2340_/C vssd1 vssd1 vccd1 vccd1 _1518_/Y
+ sky130_fd_sc_hd__a41oi_4
XFILLER_23_22 vssd1 vssd1 vccd1 vccd1 sky130_fd_sc_hd__decap_8
XFILLER_3_3 vssd1 vssd1 vccd1 vccd1 sky130_fd_sc_hd__decap_12
XFILLER_48_74 vssd1 vssd1 vccd1 vccd1 sky130_fd_sc_hd__fill_1
XFILLER_48_41 vssd1 vssd1 vccd1 vccd1 sky130_fd_sc_hd__decap_6
XFILLER_48_30 vssd1 vssd1 vccd1 vccd1 sky130_fd_sc_hd__fill_1
XFILLER_0_15 vssd1 vssd1 vccd1 vccd1 sky130_fd_sc_hd__decap_12
XFILLER_64_40 vssd1 vssd1 vccd1 vccd1 sky130_fd_sc_hd__fill_2
XFILLER_0_59 vssd1 vssd1 vccd1 vccd1 sky130_fd_sc_hd__decap_3
X_2352_ _2543_/Q _2544_/Q _2352_/C vssd1 vssd1 vccd1 vccd1 IRQ_OUT_toHost sky130_fd_sc_hd__or3_4
XFILLER_36_3 vssd1 vssd1 vccd1 vccd1 sky130_fd_sc_hd__fill_1
X_1303_ _1258_/Y vssd1 vssd1 vccd1 vccd1 _1318_/B sky130_fd_sc_hd__buf_2
X_2283_ _2276_/X _2130_/Y _2278_/X _1845_/B _2280_/X vssd1 vssd1 vccd1 vccd1 _2416_/D
+ sky130_fd_sc_hd__o32ai_4
X_2421_ _2551_/CLK _2273_/Y vssd1 vssd1 vccd1 vccd1 _2421_/Q sky130_fd_sc_hd__dfxtp_4
X_1234_ _2622_/Q _2621_/Q vssd1 vssd1 vccd1 vccd1 _1234_/Y sky130_fd_sc_hd__nand2_4
XFILLER_52_358 vssd1 vssd1 vccd1 vccd1 sky130_fd_sc_hd__fill_1
X_1998_ _2002_/A _2008_/A vssd1 vssd1 vccd1 vccd1 _1998_/Y sky130_fd_sc_hd__nor2_4
X_2619_ _2619_/CLK _1395_/Y vssd1 vssd1 vccd1 vccd1 _2619_/Q sky130_fd_sc_hd__dfxtp_4
XPHY_534 vssd1 vccd1 sky130_fd_sc_hd__tapvpwrvgnd_1
XPHY_523 vssd1 vccd1 sky130_fd_sc_hd__tapvpwrvgnd_1
XPHY_512 vssd1 vccd1 sky130_fd_sc_hd__tapvpwrvgnd_1
XPHY_501 vssd1 vccd1 sky130_fd_sc_hd__tapvpwrvgnd_1
XPHY_578 vssd1 vccd1 sky130_fd_sc_hd__tapvpwrvgnd_1
XPHY_567 vssd1 vccd1 sky130_fd_sc_hd__tapvpwrvgnd_1
XPHY_556 vssd1 vccd1 sky130_fd_sc_hd__tapvpwrvgnd_1
XPHY_545 vssd1 vccd1 sky130_fd_sc_hd__tapvpwrvgnd_1
XFILLER_50_75 vssd1 vssd1 vccd1 vccd1 sky130_fd_sc_hd__decap_4
XFILLER_34_87 vssd1 vssd1 vccd1 vccd1 sky130_fd_sc_hd__decap_4
XFILLER_7_259 vssd1 vssd1 vccd1 vccd1 sky130_fd_sc_hd__decap_8
XFILLER_11_222 vssd1 vssd1 vccd1 vccd1 sky130_fd_sc_hd__decap_4
XFILLER_59_62 vssd1 vssd1 vccd1 vccd1 sky130_fd_sc_hd__fill_1
XFILLER_46_152 vssd1 vssd1 vccd1 vccd1 sky130_fd_sc_hd__fill_1
XFILLER_42_391 vssd1 vssd1 vccd1 vccd1 sky130_fd_sc_hd__decap_6
X_1921_ _1254_/X vssd1 vssd1 vccd1 vccd1 _1933_/A sky130_fd_sc_hd__buf_2
X_1852_ _2131_/C _1751_/A _1633_/X _1851_/Y vssd1 vssd1 vccd1 vccd1 _1852_/X sky130_fd_sc_hd__a211o_4